/*---------------------------------------------------------------------------*\
  =========                 |
  \\      /  F ield         | OpenFOAM: The Open Source CFD Toolbox
   \\    /   O peration     | Website:  https://openfoam.org
    \\  /    A nd           | Version:  6
     \\/     M anipulation  |
\*---------------------------------------------------------------------------*/
Build  : 6-6257b17a4cf8
Exec   : simpleFoam
Date   : May 05 2019
Time   : 21:31:57
Host   : "DellXps14"
PID    : 9189
I/O    : uncollated
Case   : /mnt/c/Users/Peter/Documents/saturnWheel/config1a
nProcs : 1
sigFpe : Enabling floating point exception trapping (FOAM_SIGFPE).
fileModificationChecking : Monitoring run-time modified files using timeStampMaster (fileModificationSkew 10)
allowSystemOperations : Allowing user-supplied system call operations

// * * * * * * * * * * * * * * * * * * * * * * * * * * * * * * * * * * * * * //
Create time

Create mesh for time = 0


SIMPLE: Convergence criteria found
        p: tolerance 0.01
        U: tolerance 0.001
        "(k|epsilon|omega)": tolerance 0.001

Reading field p

Reading field U

Reading/calculating face flux field phi

Selecting incompressible transport model Newtonian
Selecting turbulence model type RAS
Selecting RAS turbulence model kOmegaSST
Selecting patchDistMethod meshWave
RAS
{
    RASModel        kOmegaSST;
    turbulence      on;
    printCoeffs     on;
    alphaK1         0.85;
    alphaK2         1;
    alphaOmega1     0.5;
    alphaOmega2     0.856;
    gamma1          0.555555555556;
    gamma2          0.44;
    beta1           0.075;
    beta2           0.0828;
    betaStar        0.09;
    a1              0.31;
    b1              1;
    c1              10;
    F3              false;
}

No MRF models present

No finite volume options present

Starting time loop

Time = 1

smoothSolver:  Solving for Ux, Initial residual = 0.999999997842, Final residual = 0.047135542795, No Iterations 44
smoothSolver:  Solving for Uy, Initial residual = 1, Final residual = 0.0709362059362, No Iterations 44
smoothSolver:  Solving for Uz, Initial residual = 1, Final residual = 0.0723756852181, No Iterations 43
GAMG:  Solving for p, Initial residual = 0.999999996326, Final residual = 0.0725686266193, No Iterations 4
time step continuity errors : sum local = 1.48581661208e-06, global = -2.29849847029e-07, cumulative = -2.29849847029e-07
smoothSolver:  Solving for omega, Initial residual = 0.999998794367, Final residual = 0.00171639951833, No Iterations 1
smoothSolver:  Solving for k, Initial residual = 0.99999999998, Final residual = 0.0152848916286, No Iterations 1
ExecutionTime = 12.26 s  ClockTime = 14 s

Time = 2

smoothSolver:  Solving for Ux, Initial residual = 0.166125177673, Final residual = 0.014739473072, No Iterations 16
smoothSolver:  Solving for Uy, Initial residual = 0.476360355228, Final residual = 0.044921814438, No Iterations 16
smoothSolver:  Solving for Uz, Initial residual = 0.45564640035, Final residual = 0.0446455489073, No Iterations 14
GAMG:  Solving for p, Initial residual = 0.105056959031, Final residual = 0.00803759267067, No Iterations 2
time step continuity errors : sum local = 4.86671266485e-06, global = 6.5577603428e-07, cumulative = 4.25926187251e-07
smoothSolver:  Solving for omega, Initial residual = 0.999984188268, Final residual = 0.0165992462834, No Iterations 1
smoothSolver:  Solving for k, Initial residual = 0.886327039135, Final residual = 0.0118362367332, No Iterations 2
ExecutionTime = 17.36 s  ClockTime = 19 s

Time = 3

smoothSolver:  Solving for Ux, Initial residual = 0.117788867496, Final residual = 0.0106367133994, No Iterations 15
smoothSolver:  Solving for Uy, Initial residual = 0.381913019246, Final residual = 0.0364567756369, No Iterations 16
smoothSolver:  Solving for Uz, Initial residual = 0.353075418865, Final residual = 0.0350378913949, No Iterations 15
GAMG:  Solving for p, Initial residual = 0.0928844374372, Final residual = 0.00771218979542, No Iterations 2
time step continuity errors : sum local = 3.44901819988e-06, global = 5.01038263861e-07, cumulative = 9.26964451112e-07
smoothSolver:  Solving for omega, Initial residual = 0.909007842961, Final residual = 0.0134192050303, No Iterations 2
smoothSolver:  Solving for k, Initial residual = 0.56229142643, Final residual = 0.0525381514442, No Iterations 2
ExecutionTime = 22.98 s  ClockTime = 26 s

Time = 4

smoothSolver:  Solving for Ux, Initial residual = 0.0697752511592, Final residual = 0.00664872356063, No Iterations 17
smoothSolver:  Solving for Uy, Initial residual = 0.26854647382, Final residual = 0.0246940893295, No Iterations 18
smoothSolver:  Solving for Uz, Initial residual = 0.253675239972, Final residual = 0.0227177162966, No Iterations 18
GAMG:  Solving for p, Initial residual = 0.0973525206998, Final residual = 0.00693515296688, No Iterations 2
time step continuity errors : sum local = 2.82074452623e-06, global = 5.26161574513e-07, cumulative = 1.45312602563e-06
smoothSolver:  Solving for omega, Initial residual = 0.333456195541, Final residual = 0.0219336548571, No Iterations 1
smoothSolver:  Solving for k, Initial residual = 0.302226013829, Final residual = 0.022292141315, No Iterations 3
ExecutionTime = 28.47 s  ClockTime = 32 s

Time = 5

smoothSolver:  Solving for Ux, Initial residual = 0.0534052014783, Final residual = 0.00488277262896, No Iterations 17
smoothSolver:  Solving for Uy, Initial residual = 0.203729942559, Final residual = 0.0195366152767, No Iterations 17
smoothSolver:  Solving for Uz, Initial residual = 0.202760963706, Final residual = 0.0197497341128, No Iterations 17
GAMG:  Solving for p, Initial residual = 0.0869628246003, Final residual = 0.00672520624845, No Iterations 2
time step continuity errors : sum local = 2.50000186037e-06, global = 5.57901783219e-07, cumulative = 2.01102780884e-06
smoothSolver:  Solving for omega, Initial residual = 0.26419277164, Final residual = 0.00985419914423, No Iterations 2
smoothSolver:  Solving for k, Initial residual = 0.202483644926, Final residual = 0.0184474919866, No Iterations 1
ExecutionTime = 33.63 s  ClockTime = 38 s

Time = 6

smoothSolver:  Solving for Ux, Initial residual = 0.0433128965009, Final residual = 0.00387960380113, No Iterations 17
smoothSolver:  Solving for Uy, Initial residual = 0.165255825046, Final residual = 0.0160315606479, No Iterations 17
smoothSolver:  Solving for Uz, Initial residual = 0.162291920227, Final residual = 0.0156017082942, No Iterations 17
GAMG:  Solving for p, Initial residual = 0.0883291708305, Final residual = 0.00636339586336, No Iterations 2
time step continuity errors : sum local = 2.1414904561e-06, global = 4.40638293899e-07, cumulative = 2.45166610274e-06
smoothSolver:  Solving for omega, Initial residual = 0.187031163009, Final residual = 0.00997286168239, No Iterations 1
smoothSolver:  Solving for k, Initial residual = 0.161091944747, Final residual = 0.0104226916696, No Iterations 2
ExecutionTime = 38.82 s  ClockTime = 43 s

Time = 7

smoothSolver:  Solving for Ux, Initial residual = 0.0389626942199, Final residual = 0.00375978229589, No Iterations 17
smoothSolver:  Solving for Uy, Initial residual = 0.162220278761, Final residual = 0.0149439000419, No Iterations 18
smoothSolver:  Solving for Uz, Initial residual = 0.160455822321, Final residual = 0.014528568906, No Iterations 18
GAMG:  Solving for p, Initial residual = 0.0935577187661, Final residual = 0.00633646802527, No Iterations 2
time step continuity errors : sum local = 1.90136956713e-06, global = 2.77423738494e-07, cumulative = 2.72908984124e-06
smoothSolver:  Solving for omega, Initial residual = 0.150182573565, Final residual = 0.0117055576257, No Iterations 1
smoothSolver:  Solving for k, Initial residual = 0.117905764158, Final residual = 0.0107995074108, No Iterations 1
ExecutionTime = 43.99 s  ClockTime = 49 s

Time = 8

smoothSolver:  Solving for Ux, Initial residual = 0.0372618965609, Final residual = 0.00334939203941, No Iterations 18
smoothSolver:  Solving for Uy, Initial residual = 0.165794401066, Final residual = 0.0155172965884, No Iterations 18
smoothSolver:  Solving for Uz, Initial residual = 0.167113880435, Final residual = 0.0154988757936, No Iterations 18
GAMG:  Solving for p, Initial residual = 0.0946593693834, Final residual = 0.00564331647817, No Iterations 2
time step continuity errors : sum local = 1.59729204099e-06, global = 9.81895215767e-08, cumulative = 2.82727936281e-06
smoothSolver:  Solving for omega, Initial residual = 0.114677137462, Final residual = 0.00788544697776, No Iterations 1
smoothSolver:  Solving for k, Initial residual = 0.102474562815, Final residual = 0.00613127883699, No Iterations 2
ExecutionTime = 49.43 s  ClockTime = 55 s

Time = 9

smoothSolver:  Solving for Ux, Initial residual = 0.0351720066696, Final residual = 0.00351550710523, No Iterations 17
smoothSolver:  Solving for Uy, Initial residual = 0.156589589814, Final residual = 0.0139297769442, No Iterations 18
smoothSolver:  Solving for Uz, Initial residual = 0.160372026131, Final residual = 0.0143851780623, No Iterations 18
GAMG:  Solving for p, Initial residual = 0.0901318924544, Final residual = 0.00487496501311, No Iterations 2
time step continuity errors : sum local = 1.3318783152e-06, global = -8.9259693453e-08, cumulative = 2.73801966936e-06
smoothSolver:  Solving for omega, Initial residual = 0.0968339467576, Final residual = 0.00853241738464, No Iterations 1
smoothSolver:  Solving for k, Initial residual = 0.0715494103744, Final residual = 0.00380006018503, No Iterations 2
ExecutionTime = 54.77 s  ClockTime = 61 s

Time = 10

smoothSolver:  Solving for Ux, Initial residual = 0.0327629407633, Final residual = 0.00309943291183, No Iterations 17
smoothSolver:  Solving for Uy, Initial residual = 0.139900576651, Final residual = 0.0130051878939, No Iterations 17
smoothSolver:  Solving for Uz, Initial residual = 0.144593463154, Final residual = 0.0135768172518, No Iterations 17
GAMG:  Solving for p, Initial residual = 0.0835667695232, Final residual = 0.00450690529576, No Iterations 2
time step continuity errors : sum local = 1.20568675658e-06, global = -2.51508754874e-07, cumulative = 2.48651091449e-06
smoothSolver:  Solving for omega, Initial residual = 0.0726134877286, Final residual = 0.00652731407937, No Iterations 1
smoothSolver:  Solving for k, Initial residual = 0.057771725858, Final residual = 0.0032893326423, No Iterations 2
ExecutionTime = 60.39 s  ClockTime = 68 s

Time = 11

smoothSolver:  Solving for Ux, Initial residual = 0.0300347732264, Final residual = 0.00266855084137, No Iterations 17
smoothSolver:  Solving for Uy, Initial residual = 0.119791570581, Final residual = 0.0115289283733, No Iterations 16
smoothSolver:  Solving for Uz, Initial residual = 0.122098303148, Final residual = 0.0117539876373, No Iterations 16
GAMG:  Solving for p, Initial residual = 0.075697771132, Final residual = 0.00428952319121, No Iterations 2
time step continuity errors : sum local = 1.16974989327e-06, global = -3.21563546248e-07, cumulative = 2.16494736824e-06
smoothSolver:  Solving for omega, Initial residual = 0.0614654581296, Final residual = 0.00296840983365, No Iterations 2
smoothSolver:  Solving for k, Initial residual = 0.0424824750434, Final residual = 0.00242557040971, No Iterations 2
ExecutionTime = 65.67 s  ClockTime = 73 s

Time = 12

smoothSolver:  Solving for Ux, Initial residual = 0.0271486966705, Final residual = 0.00262226251863, No Iterations 16
smoothSolver:  Solving for Uy, Initial residual = 0.101991197766, Final residual = 0.00910786555554, No Iterations 16
smoothSolver:  Solving for Uz, Initial residual = 0.101619813332, Final residual = 0.00897973688728, No Iterations 16
GAMG:  Solving for p, Initial residual = 0.0677749031916, Final residual = 0.00394806242951, No Iterations 2
time step continuity errors : sum local = 1.10411622244e-06, global = -3.09048729638e-07, cumulative = 1.8558986386e-06
smoothSolver:  Solving for omega, Initial residual = 0.0408713191724, Final residual = 0.00371672075329, No Iterations 1
smoothSolver:  Solving for k, Initial residual = 0.0329325720505, Final residual = 0.00232727510918, No Iterations 2
ExecutionTime = 70.78 s  ClockTime = 79 s

Time = 13

smoothSolver:  Solving for Ux, Initial residual = 0.0242586476587, Final residual = 0.00226454198575, No Iterations 16
smoothSolver:  Solving for Uy, Initial residual = 0.0897906121837, Final residual = 0.00887337643289, No Iterations 15
smoothSolver:  Solving for Uz, Initial residual = 0.0882749235716, Final residual = 0.0087115629324, No Iterations 15
GAMG:  Solving for p, Initial residual = 0.060021682912, Final residual = 0.00357085677374, No Iterations 2
time step continuity errors : sum local = 1.04123994286e-06, global = -2.59536506112e-07, cumulative = 1.59636213249e-06
smoothSolver:  Solving for omega, Initial residual = 0.0333429909071, Final residual = 0.00164939710422, No Iterations 2
smoothSolver:  Solving for k, Initial residual = 0.0258521206603, Final residual = 0.00215252998788, No Iterations 2
ExecutionTime = 76.05 s  ClockTime = 84 s

Time = 14

smoothSolver:  Solving for Ux, Initial residual = 0.0214415604615, Final residual = 0.00192500318679, No Iterations 16
smoothSolver:  Solving for Uy, Initial residual = 0.078702608726, Final residual = 0.00781157249264, No Iterations 15
smoothSolver:  Solving for Uz, Initial residual = 0.078759846087, Final residual = 0.00701763050923, No Iterations 16
GAMG:  Solving for p, Initial residual = 0.053862334852, Final residual = 0.00321933910298, No Iterations 2
time step continuity errors : sum local = 9.80243382413e-07, global = -1.86281547617e-07, cumulative = 1.41008058487e-06
smoothSolver:  Solving for omega, Initial residual = 0.0234296794174, Final residual = 0.00220308043008, No Iterations 1
smoothSolver:  Solving for k, Initial residual = 0.0210778733091, Final residual = 0.00178379938778, No Iterations 3
ExecutionTime = 81.22 s  ClockTime = 90 s

Time = 15

smoothSolver:  Solving for Ux, Initial residual = 0.0193218400904, Final residual = 0.00168438383303, No Iterations 16
smoothSolver:  Solving for Uy, Initial residual = 0.070890604712, Final residual = 0.00704890404439, No Iterations 15
smoothSolver:  Solving for Uz, Initial residual = 0.0730663989611, Final residual = 0.00661652509039, No Iterations 16
GAMG:  Solving for p, Initial residual = 0.0500439320268, Final residual = 0.00297755501454, No Iterations 2
time step continuity errors : sum local = 9.28986366219e-07, global = -9.95822512636e-08, cumulative = 1.31049833361e-06
smoothSolver:  Solving for omega, Initial residual = 0.0188540025628, Final residual = 0.00100335814999, No Iterations 2
smoothSolver:  Solving for k, Initial residual = 0.0181195930704, Final residual = 0.00165230261598, No Iterations 4
ExecutionTime = 86.28 s  ClockTime = 95 s

Time = 16

smoothSolver:  Solving for Ux, Initial residual = 0.0179670433599, Final residual = 0.00176388856254, No Iterations 15
smoothSolver:  Solving for Uy, Initial residual = 0.0658504977177, Final residual = 0.00652558743708, No Iterations 15
smoothSolver:  Solving for Uz, Initial residual = 0.0691187218595, Final residual = 0.00623933421572, No Iterations 16
GAMG:  Solving for p, Initial residual = 0.0473337810308, Final residual = 0.00277480311247, No Iterations 2
time step continuity errors : sum local = 8.83581488078e-07, global = -1.49311879562e-08, cumulative = 1.29556714565e-06
smoothSolver:  Solving for omega, Initial residual = 0.0135557775952, Final residual = 0.00135402558093, No Iterations 1
smoothSolver:  Solving for k, Initial residual = 0.017522959221, Final residual = 0.00147810845025, No Iterations 6
ExecutionTime = 91.37 s  ClockTime = 101 s

Time = 17

smoothSolver:  Solving for Ux, Initial residual = 0.017413348328, Final residual = 0.00168250349094, No Iterations 15
smoothSolver:  Solving for Uy, Initial residual = 0.0625229708767, Final residual = 0.00614089300178, No Iterations 15
smoothSolver:  Solving for Uz, Initial residual = 0.065701959435, Final residual = 0.00584119459687, No Iterations 16
GAMG:  Solving for p, Initial residual = 0.0456863435471, Final residual = 0.0026220759829, No Iterations 2
time step continuity errors : sum local = 8.39535712287e-07, global = 6.3829827648e-08, cumulative = 1.3593969733e-06
smoothSolver:  Solving for omega, Initial residual = 0.0107795819089, Final residual = 0.000623464590658, No Iterations 2
smoothSolver:  Solving for k, Initial residual = 0.0198705011553, Final residual = 0.00183658329529, No Iterations 7
ExecutionTime = 96.49 s  ClockTime = 106 s

Time = 18

smoothSolver:  Solving for Ux, Initial residual = 0.0170407909519, Final residual = 0.00162798242818, No Iterations 15
smoothSolver:  Solving for Uy, Initial residual = 0.0583473069512, Final residual = 0.00563522962835, No Iterations 15
smoothSolver:  Solving for Uz, Initial residual = 0.061070162343, Final residual = 0.00610510469916, No Iterations 15
GAMG:  Solving for p, Initial residual = 0.0441613151606, Final residual = 0.00245293570426, No Iterations 2
time step continuity errors : sum local = 7.88415121573e-07, global = 1.2106169448e-07, cumulative = 1.48045866778e-06
smoothSolver:  Solving for omega, Initial residual = 0.00784822455642, Final residual = 0.000450354356915, No Iterations 2
smoothSolver:  Solving for k, Initial residual = 0.0260440957079, Final residual = 0.00245985364224, No Iterations 8
ExecutionTime = 101.69 s  ClockTime = 112 s

Time = 19

smoothSolver:  Solving for Ux, Initial residual = 0.0165097846923, Final residual = 0.00155893814435, No Iterations 15
smoothSolver:  Solving for Uy, Initial residual = 0.0541110012176, Final residual = 0.00507329088542, No Iterations 15
smoothSolver:  Solving for Uz, Initial residual = 0.0557786373332, Final residual = 0.00536549768027, No Iterations 15
GAMG:  Solving for p, Initial residual = 0.0428600987377, Final residual = 0.00229742417525, No Iterations 2
time step continuity errors : sum local = 7.43576973547e-07, global = 1.52286730905e-07, cumulative = 1.63274539869e-06
smoothSolver:  Solving for omega, Initial residual = 0.00578476197488, Final residual = 0.000337990822924, No Iterations 2
smoothSolver:  Solving for k, Initial residual = 0.0218444120869, Final residual = 0.00197685656193, No Iterations 9
ExecutionTime = 106.97 s  ClockTime = 118 s

Time = 20

smoothSolver:  Solving for Ux, Initial residual = 0.0158002178258, Final residual = 0.00148804385035, No Iterations 15
smoothSolver:  Solving for Uy, Initial residual = 0.0502599211616, Final residual = 0.00455843962068, No Iterations 15
smoothSolver:  Solving for Uz, Initial residual = 0.0514838677833, Final residual = 0.00475447453488, No Iterations 15
GAMG:  Solving for p, Initial residual = 0.0418313384573, Final residual = 0.00224634190282, No Iterations 2
time step continuity errors : sum local = 7.23133029597e-07, global = 1.58575467683e-07, cumulative = 1.79132086637e-06
smoothSolver:  Solving for omega, Initial residual = 0.00438210286206, Final residual = 0.000252932181507, No Iterations 2
smoothSolver:  Solving for k, Initial residual = 0.019566195914, Final residual = 0.00162743491795, No Iterations 10
ExecutionTime = 112.38 s  ClockTime = 123 s

Time = 21

smoothSolver:  Solving for Ux, Initial residual = 0.0148633480514, Final residual = 0.00140193470778, No Iterations 15
smoothSolver:  Solving for Uy, Initial residual = 0.046340685773, Final residual = 0.00413836633601, No Iterations 15
smoothSolver:  Solving for Uz, Initial residual = 0.0469839609642, Final residual = 0.00423737402785, No Iterations 15
GAMG:  Solving for p, Initial residual = 0.0405220059128, Final residual = 0.00217062308192, No Iterations 2
time step continuity errors : sum local = 6.99308782787e-07, global = 1.41943828893e-07, cumulative = 1.93326469526e-06
smoothSolver:  Solving for omega, Initial residual = 0.00342065725044, Final residual = 0.000201103731234, No Iterations 2
smoothSolver:  Solving for k, Initial residual = 0.0187953375305, Final residual = 0.00173409626457, No Iterations 10
ExecutionTime = 117.69 s  ClockTime = 129 s

Time = 22

smoothSolver:  Solving for Ux, Initial residual = 0.014007256759, Final residual = 0.00131471616716, No Iterations 15
smoothSolver:  Solving for Uy, Initial residual = 0.043133580537, Final residual = 0.00380265284516, No Iterations 15
smoothSolver:  Solving for Uz, Initial residual = 0.0430386213374, Final residual = 0.00381152884481, No Iterations 15
GAMG:  Solving for p, Initial residual = 0.039200765637, Final residual = 0.00206805917785, No Iterations 2
time step continuity errors : sum local = 6.68778605824e-07, global = 1.07781012939e-07, cumulative = 2.0410457082e-06
smoothSolver:  Solving for omega, Initial residual = 0.00265786017401, Final residual = 0.000158990156042, No Iterations 2
smoothSolver:  Solving for k, Initial residual = 0.0191176349432, Final residual = 0.00190902717938, No Iterations 10
ExecutionTime = 123.03 s  ClockTime = 135 s

Time = 23

smoothSolver:  Solving for Ux, Initial residual = 0.0130782339756, Final residual = 0.00121756033379, No Iterations 15
smoothSolver:  Solving for Uy, Initial residual = 0.0403816800101, Final residual = 0.00352371468945, No Iterations 15
smoothSolver:  Solving for Uz, Initial residual = 0.0395722448435, Final residual = 0.00345992830716, No Iterations 15
GAMG:  Solving for p, Initial residual = 0.0375413970506, Final residual = 0.00194209270151, No Iterations 2
time step continuity errors : sum local = 6.33772745695e-07, global = 6.37504675469e-08, cumulative = 2.10479617575e-06
smoothSolver:  Solving for omega, Initial residual = 0.00205703485865, Final residual = 0.000126975373403, No Iterations 2
smoothSolver:  Solving for k, Initial residual = 0.0198026617494, Final residual = 0.00174925215988, No Iterations 11
ExecutionTime = 128.25 s  ClockTime = 141 s

Time = 24

smoothSolver:  Solving for Ux, Initial residual = 0.0121261875456, Final residual = 0.00110659095484, No Iterations 15
smoothSolver:  Solving for Uy, Initial residual = 0.0375893845867, Final residual = 0.00323845309956, No Iterations 15
smoothSolver:  Solving for Uz, Initial residual = 0.036341443846, Final residual = 0.00312519961835, No Iterations 15
GAMG:  Solving for p, Initial residual = 0.0357604552431, Final residual = 0.00181363666488, No Iterations 2
time step continuity errors : sum local = 6.00442323715e-07, global = 1.45474693098e-08, cumulative = 2.11934364506e-06
smoothSolver:  Solving for omega, Initial residual = 0.00158585825997, Final residual = 9.98883585343e-05, No Iterations 2
smoothSolver:  Solving for k, Initial residual = 0.020284896774, Final residual = 0.00190941098076, No Iterations 11
ExecutionTime = 133.46 s  ClockTime = 146 s

Time = 25

smoothSolver:  Solving for Ux, Initial residual = 0.0112697408988, Final residual = 0.0010025626426, No Iterations 15
smoothSolver:  Solving for Uy, Initial residual = 0.0348330591952, Final residual = 0.00345973639273, No Iterations 14
smoothSolver:  Solving for Uz, Initial residual = 0.0333574616053, Final residual = 0.00329932420079, No Iterations 14
GAMG:  Solving for p, Initial residual = 0.0338550539887, Final residual = 0.00172722080106, No Iterations 2
time step continuity errors : sum local = 5.78472054832e-07, global = -2.92291596946e-08, cumulative = 2.09011448536e-06
smoothSolver:  Solving for omega, Initial residual = 0.00121886828101, Final residual = 7.88586057704e-05, No Iterations 2
smoothSolver:  Solving for k, Initial residual = 0.0204625999739, Final residual = 0.00202995141446, No Iterations 11
ExecutionTime = 138.69 s  ClockTime = 152 s

Time = 26

smoothSolver:  Solving for Ux, Initial residual = 0.0106101356715, Final residual = 0.000921637982509, No Iterations 15
smoothSolver:  Solving for Uy, Initial residual = 0.0322043087165, Final residual = 0.0031876746739, No Iterations 14
smoothSolver:  Solving for Uz, Initial residual = 0.030660200477, Final residual = 0.0030009600844, No Iterations 14
GAMG:  Solving for p, Initial residual = 0.0322007500437, Final residual = 0.00168238037052, No Iterations 2
time step continuity errors : sum local = 5.71727940338e-07, global = -6.25648712192e-08, cumulative = 2.02754961414e-06
smoothSolver:  Solving for omega, Initial residual = 0.000942385343908, Final residual = 6.3621135108e-05, No Iterations 2
smoothSolver:  Solving for k, Initial residual = 0.0203885260799, Final residual = 0.00176859346246, No Iterations 12
ExecutionTime = 143.96 s  ClockTime = 158 s

Time = 27

smoothSolver:  Solving for Ux, Initial residual = 0.00993795676752, Final residual = 0.000972253436864, No Iterations 14
smoothSolver:  Solving for Uy, Initial residual = 0.030066032416, Final residual = 0.00294131755516, No Iterations 14
smoothSolver:  Solving for Uz, Initial residual = 0.0284273494196, Final residual = 0.00274251085333, No Iterations 14
GAMG:  Solving for p, Initial residual = 0.0305447914308, Final residual = 0.00163127568611, No Iterations 2
time step continuity errors : sum local = 5.6271673192e-07, global = -8.14876953582e-08, cumulative = 1.94606191879e-06
smoothSolver:  Solving for omega, Initial residual = 0.000729920478281, Final residual = 5.23712486979e-05, No Iterations 2
smoothSolver:  Solving for k, Initial residual = 0.020103847785, Final residual = 0.0018013652582, No Iterations 12
ExecutionTime = 149.48 s  ClockTime = 164 s

Time = 28

smoothSolver:  Solving for Ux, Initial residual = 0.00921042473176, Final residual = 0.000880963718023, No Iterations 14
smoothSolver:  Solving for Uy, Initial residual = 0.0279984327986, Final residual = 0.00265635466458, No Iterations 14
smoothSolver:  Solving for Uz, Initial residual = 0.0263937129555, Final residual = 0.00248314710907, No Iterations 14
GAMG:  Solving for p, Initial residual = 0.0288091835786, Final residual = 0.00158022123693, No Iterations 2
time step continuity errors : sum local = 5.52934400242e-07, global = -8.55355596977e-08, cumulative = 1.86052635909e-06
smoothSolver:  Solving for omega, Initial residual = 0.000565013997008, Final residual = 4.30498816261e-05, No Iterations 2
smoothSolver:  Solving for k, Initial residual = 0.0196691800409, Final residual = 0.00180439588404, No Iterations 12
ExecutionTime = 154.84 s  ClockTime = 170 s

Time = 29

smoothSolver:  Solving for Ux, Initial residual = 0.00859147891832, Final residual = 0.000799933597767, No Iterations 14
smoothSolver:  Solving for Uy, Initial residual = 0.0258978221203, Final residual = 0.00236455777691, No Iterations 14
smoothSolver:  Solving for Uz, Initial residual = 0.0244591218189, Final residual = 0.00224767835881, No Iterations 14
GAMG:  Solving for p, Initial residual = 0.0269645180856, Final residual = 0.00151584173445, No Iterations 2
time step continuity errors : sum local = 5.37009660399e-07, global = -7.76432487526e-08, cumulative = 1.78288311034e-06
smoothSolver:  Solving for omega, Initial residual = 0.000436818334758, Final residual = 3.55207012784e-05, No Iterations 2
smoothSolver:  Solving for k, Initial residual = 0.0191614585235, Final residual = 0.00177394898221, No Iterations 12
ExecutionTime = 160.2 s  ClockTime = 176 s

Time = 30

smoothSolver:  Solving for Ux, Initial residual = 0.00807921398913, Final residual = 0.00073713029661, No Iterations 14
smoothSolver:  Solving for Uy, Initial residual = 0.0239602063384, Final residual = 0.00212563553204, No Iterations 14
smoothSolver:  Solving for Uz, Initial residual = 0.0227774676579, Final residual = 0.00205823283277, No Iterations 14
GAMG:  Solving for p, Initial residual = 0.0252256626063, Final residual = 0.001426645576, No Iterations 2
time step continuity errors : sum local = 5.1113938943e-07, global = -6.20339735976e-08, cumulative = 1.72084913674e-06
smoothSolver:  Solving for omega, Initial residual = 0.000337689551914, Final residual = 2.930670033e-05, No Iterations 2
smoothSolver:  Solving for k, Initial residual = 0.0183508180168, Final residual = 0.00170892323824, No Iterations 12
ExecutionTime = 165.52 s  ClockTime = 182 s

Time = 31

smoothSolver:  Solving for Ux, Initial residual = 0.00762431823247, Final residual = 0.000693071186087, No Iterations 14
smoothSolver:  Solving for Uy, Initial residual = 0.022280014882, Final residual = 0.00194530840644, No Iterations 14
smoothSolver:  Solving for Uz, Initial residual = 0.0214552761178, Final residual = 0.00191586207278, No Iterations 14
GAMG:  Solving for p, Initial residual = 0.0234671966295, Final residual = 0.00129540279937, No Iterations 2
time step continuity errors : sum local = 4.68044463758e-07, global = -4.28198944318e-08, cumulative = 1.67802924231e-06
smoothSolver:  Solving for omega, Initial residual = 0.000260980285811, Final residual = 2.42914853409e-05, No Iterations 2
smoothSolver:  Solving for k, Initial residual = 0.0173133187002, Final residual = 0.00160564711172, No Iterations 12
ExecutionTime = 170.69 s  ClockTime = 188 s

Time = 32

smoothSolver:  Solving for Ux, Initial residual = 0.00729891648221, Final residual = 0.000668969479428, No Iterations 14
smoothSolver:  Solving for Uy, Initial residual = 0.0209957965055, Final residual = 0.00183085409975, No Iterations 14
smoothSolver:  Solving for Uz, Initial residual = 0.0203186963039, Final residual = 0.00181266428623, No Iterations 14
GAMG:  Solving for p, Initial residual = 0.021861804037, Final residual = 0.00112964178037, No Iterations 2
time step continuity errors : sum local = 4.10609438107e-07, global = -2.30191664172e-08, cumulative = 1.65501007589e-06
smoothSolver:  Solving for omega, Initial residual = 0.000201794125995, Final residual = 2.01402935191e-05, No Iterations 2
smoothSolver:  Solving for k, Initial residual = 0.0162737365972, Final residual = 0.00147113335497, No Iterations 12
ExecutionTime = 175.8 s  ClockTime = 193 s

Time = 33

smoothSolver:  Solving for Ux, Initial residual = 0.00708378983532, Final residual = 0.000659158867024, No Iterations 14
smoothSolver:  Solving for Uy, Initial residual = 0.0200958732076, Final residual = 0.00177987031215, No Iterations 14
smoothSolver:  Solving for Uz, Initial residual = 0.0194032362049, Final residual = 0.00173947936618, No Iterations 14
GAMG:  Solving for p, Initial residual = 0.020503964758, Final residual = 0.000974081126842, No Iterations 2
time step continuity errors : sum local = 3.55096553385e-07, global = -3.30220180427e-09, cumulative = 1.65170787408e-06
smoothSolver:  Solving for omega, Initial residual = 0.000156056673935, Final residual = 1.30139531823e-05, No Iterations 3
smoothSolver:  Solving for k, Initial residual = 0.0150836946662, Final residual = 0.00131696773694, No Iterations 12
ExecutionTime = 181.31 s  ClockTime = 200 s

Time = 34

smoothSolver:  Solving for Ux, Initial residual = 0.00695046663527, Final residual = 0.000662361767716, No Iterations 14
smoothSolver:  Solving for Uy, Initial residual = 0.0195726261896, Final residual = 0.00179602596016, No Iterations 14
smoothSolver:  Solving for Uz, Initial residual = 0.018760323864, Final residual = 0.00169807522159, No Iterations 14
GAMG:  Solving for p, Initial residual = 0.0194230382058, Final residual = 0.000885981098834, No Iterations 2
time step continuity errors : sum local = 3.22804589862e-07, global = 1.52179198152e-08, cumulative = 1.6669257939e-06
smoothSolver:  Solving for omega, Initial residual = 0.000119387189337, Final residual = 1.00711866888e-05, No Iterations 3
smoothSolver:  Solving for k, Initial residual = 0.0137077392232, Final residual = 0.001152731462, No Iterations 12
ExecutionTime = 186.38 s  ClockTime = 205 s

Time = 35

smoothSolver:  Solving for Ux, Initial residual = 0.00698325314728, Final residual = 0.000684525485935, No Iterations 14
smoothSolver:  Solving for Uy, Initial residual = 0.0194535805094, Final residual = 0.00188168698428, No Iterations 14
smoothSolver:  Solving for Uz, Initial residual = 0.0183244449188, Final residual = 0.00170718088332, No Iterations 14
GAMG:  Solving for p, Initial residual = 0.0185147920586, Final residual = 0.000888561347327, No Iterations 2
time step continuity errors : sum local = 3.22343233814e-07, global = 3.03079691092e-08, cumulative = 1.69723376301e-06
smoothSolver:  Solving for omega, Initial residual = 9.18995058093e-05, Final residual = 7.92902238569e-06, No Iterations 3
smoothSolver:  Solving for k, Initial residual = 0.0125073645624, Final residual = 0.00122185435736, No Iterations 11
ExecutionTime = 191.38 s  ClockTime = 211 s

Time = 36

smoothSolver:  Solving for Ux, Initial residual = 0.00715111969044, Final residual = 0.000638558689296, No Iterations 15
smoothSolver:  Solving for Uy, Initial residual = 0.0197843859256, Final residual = 0.00176482770406, No Iterations 15
smoothSolver:  Solving for Uz, Initial residual = 0.0181288172984, Final residual = 0.00178554188305, No Iterations 14
GAMG:  Solving for p, Initial residual = 0.0179111107237, Final residual = 0.000924598983971, No Iterations 2
time step continuity errors : sum local = 3.32638947693e-07, global = 3.90707614673e-08, cumulative = 1.73630452448e-06
smoothSolver:  Solving for omega, Initial residual = 7.09206444646e-05, Final residual = 6.2803233091e-06, No Iterations 3
smoothSolver:  Solving for k, Initial residual = 0.0114274558487, Final residual = 0.001044804984, No Iterations 11
ExecutionTime = 196.86 s  ClockTime = 217 s

Time = 37

smoothSolver:  Solving for Ux, Initial residual = 0.00738840537123, Final residual = 0.00069479116284, No Iterations 15
smoothSolver:  Solving for Uy, Initial residual = 0.0203866374414, Final residual = 0.00192829498296, No Iterations 15
smoothSolver:  Solving for Uz, Initial residual = 0.0183028398227, Final residual = 0.0016738809807, No Iterations 15
GAMG:  Solving for p, Initial residual = 0.0178102952899, Final residual = 0.00095528563502, No Iterations 2
time step continuity errors : sum local = 3.39870856414e-07, global = 4.08529319133e-08, cumulative = 1.77715745639e-06
smoothSolver:  Solving for omega, Initial residual = 5.45831347861e-05, Final residual = 4.95103270324e-06, No Iterations 3
smoothSolver:  Solving for k, Initial residual = 0.0103864937683, Final residual = 0.000883377100732, No Iterations 11
ExecutionTime = 202.06 s  ClockTime = 223 s

Time = 38

smoothSolver:  Solving for Ux, Initial residual = 0.00754364104115, Final residual = 0.000734507021608, No Iterations 15
smoothSolver:  Solving for Uy, Initial residual = 0.0208902720094, Final residual = 0.00204288948916, No Iterations 15
smoothSolver:  Solving for Uz, Initial residual = 0.0188720535519, Final residual = 0.00183104733639, No Iterations 15
GAMG:  Solving for p, Initial residual = 0.0178660481604, Final residual = 0.00096150516651, No Iterations 2
time step continuity errors : sum local = 3.38027786527e-07, global = 3.55525516498e-08, cumulative = 1.81271000804e-06
smoothSolver:  Solving for omega, Initial residual = 4.1934906002e-05, Final residual = 3.85368892056e-06, No Iterations 3
smoothSolver:  Solving for k, Initial residual = 0.00929131342064, Final residual = 0.000755643275403, No Iterations 11
ExecutionTime = 206.88 s  ClockTime = 227 s

Time = 39

smoothSolver:  Solving for Ux, Initial residual = 0.00746872761334, Final residual = 0.000731117602559, No Iterations 15
smoothSolver:  Solving for Uy, Initial residual = 0.0210207242447, Final residual = 0.00205508436161, No Iterations 15
smoothSolver:  Solving for Uz, Initial residual = 0.0193463453466, Final residual = 0.00191842722361, No Iterations 15
GAMG:  Solving for p, Initial residual = 0.0179336589865, Final residual = 0.000898734174217, No Iterations 2
time step continuity errors : sum local = 3.12493425962e-07, global = 2.53904454671e-08, cumulative = 1.83810045351e-06
smoothSolver:  Solving for omega, Initial residual = 3.21516474935e-05, Final residual = 2.95801247531e-06, No Iterations 3
smoothSolver:  Solving for k, Initial residual = 0.00841885596044, Final residual = 0.000831074212558, No Iterations 10
ExecutionTime = 211.5 s  ClockTime = 232 s

Time = 40

smoothSolver:  Solving for Ux, Initial residual = 0.00703937335353, Final residual = 0.00067300506491, No Iterations 15
smoothSolver:  Solving for Uy, Initial residual = 0.0203133461263, Final residual = 0.0019003940192, No Iterations 15
smoothSolver:  Solving for Uz, Initial residual = 0.0192010685416, Final residual = 0.00186568656891, No Iterations 15
GAMG:  Solving for p, Initial residual = 0.0181967184027, Final residual = 0.000808396422362, No Iterations 2
time step continuity errors : sum local = 2.78801283915e-07, global = 1.28580842068e-08, cumulative = 1.85095853771e-06
smoothSolver:  Solving for omega, Initial residual = 2.45770350809e-05, Final residual = 2.21306007172e-06, No Iterations 3
smoothSolver:  Solving for k, Initial residual = 0.00770917191498, Final residual = 0.000634162911514, No Iterations 11
ExecutionTime = 217.35 s  ClockTime = 239 s

Time = 41

smoothSolver:  Solving for Ux, Initial residual = 0.00649155350764, Final residual = 0.000587009689062, No Iterations 15
smoothSolver:  Solving for Uy, Initial residual = 0.0193204904093, Final residual = 0.00188269952968, No Iterations 14
smoothSolver:  Solving for Uz, Initial residual = 0.0185375092345, Final residual = 0.00169296415498, No Iterations 15
GAMG:  Solving for p, Initial residual = 0.0185279089172, Final residual = 0.000751474509711, No Iterations 2
time step continuity errors : sum local = 2.5813516829e-07, global = 5.97652940593e-10, cumulative = 1.85155619065e-06
smoothSolver:  Solving for omega, Initial residual = 1.87151378035e-05, Final residual = 1.58894856131e-06, No Iterations 3
smoothSolver:  Solving for k, Initial residual = 0.00703562547035, Final residual = 0.000631506975022, No Iterations 11
ExecutionTime = 223.1 s  ClockTime = 246 s

Time = 42

smoothSolver:  Solving for Ux, Initial residual = 0.00597591940836, Final residual = 0.000525539658664, No Iterations 15
smoothSolver:  Solving for Uy, Initial residual = 0.018468506322, Final residual = 0.00164709377044, No Iterations 14
smoothSolver:  Solving for Uz, Initial residual = 0.0177978565881, Final residual = 0.00174615698587, No Iterations 14
GAMG:  Solving for p, Initial residual = 0.0186849794599, Final residual = 0.000716385126133, No Iterations 2
time step continuity errors : sum local = 2.45055175077e-07, global = -9.16782703025e-09, cumulative = 1.84238836362e-06
smoothSolver:  Solving for omega, Initial residual = 1.41553040189e-05, Final residual = 1.07837391244e-06, No Iterations 3
smoothSolver:  Solving for k, Initial residual = 0.00664742148026, Final residual = 0.000657716397477, No Iterations 11
ExecutionTime = 229.13 s  ClockTime = 253 s

Time = 43

smoothSolver:  Solving for Ux, Initial residual = 0.00560021815345, Final residual = 0.000558653544596, No Iterations 14
smoothSolver:  Solving for Uy, Initial residual = 0.0177569387302, Final residual = 0.00151884916427, No Iterations 14
smoothSolver:  Solving for Uz, Initial residual = 0.0168890324656, Final residual = 0.00160384572943, No Iterations 14
GAMG:  Solving for p, Initial residual = 0.0188964172027, Final residual = 0.000718646975787, No Iterations 2
time step continuity errors : sum local = 2.45830284464e-07, global = -1.50489049099e-08, cumulative = 1.82733945871e-06
smoothSolver:  Solving for omega, Initial residual = 1.063673604e-05, Final residual = 1.02309577039e-06, No Iterations 2
smoothSolver:  Solving for k, Initial residual = 0.00654365801189, Final residual = 0.000573373355367, No Iterations 12
ExecutionTime = 234.6 s  ClockTime = 259 s

Time = 44

smoothSolver:  Solving for Ux, Initial residual = 0.00522310601976, Final residual = 0.000498408218151, No Iterations 14
smoothSolver:  Solving for Uy, Initial residual = 0.0170048422469, Final residual = 0.00164236187639, No Iterations 13
smoothSolver:  Solving for Uz, Initial residual = 0.016039158345, Final residual = 0.0014938501126, No Iterations 14
GAMG:  Solving for p, Initial residual = 0.018697524722, Final residual = 0.000778742947454, No Iterations 2
time step continuity errors : sum local = 2.66865615634e-07, global = -1.77970417809e-08, cumulative = 1.80954241693e-06
smoothSolver:  Solving for omega, Initial residual = 7.9536748003e-06, Final residual = 7.31814856564e-07, No Iterations 2
smoothSolver:  Solving for k, Initial residual = 0.00659286052558, Final residual = 0.000590634763366, No Iterations 12
ExecutionTime = 240.33 s  ClockTime = 266 s

Time = 45

smoothSolver:  Solving for Ux, Initial residual = 0.00481909976714, Final residual = 0.000442713374371, No Iterations 14
smoothSolver:  Solving for Uy, Initial residual = 0.0161242177051, Final residual = 0.00149269430976, No Iterations 13
smoothSolver:  Solving for Uz, Initial residual = 0.0151595700813, Final residual = 0.00136811964087, No Iterations 14
GAMG:  Solving for p, Initial residual = 0.0183985247668, Final residual = 0.000757285786701, No Iterations 2
time step continuity errors : sum local = 2.60144648078e-07, global = -1.7550093644e-08, cumulative = 1.79199232329e-06
smoothSolver:  Solving for omega, Initial residual = 6.04368313118e-06, Final residual = 5.53400523242e-07, No Iterations 2
smoothSolver:  Solving for k, Initial residual = 0.00656838249622, Final residual = 0.000576908286125, No Iterations 12
ExecutionTime = 246.16 s  ClockTime = 273 s

Time = 46

smoothSolver:  Solving for Ux, Initial residual = 0.00450524108943, Final residual = 0.000400617488591, No Iterations 14
smoothSolver:  Solving for Uy, Initial residual = 0.0153059132238, Final residual = 0.00138118760475, No Iterations 13
smoothSolver:  Solving for Uz, Initial residual = 0.0142919980747, Final residual = 0.00123304863433, No Iterations 14
GAMG:  Solving for p, Initial residual = 0.0177619208321, Final residual = 0.000647423100527, No Iterations 2
time step continuity errors : sum local = 2.2307696571e-07, global = -1.5205389289e-08, cumulative = 1.776786934e-06
smoothSolver:  Solving for omega, Initial residual = 4.58650157523e-06, Final residual = 4.28342200211e-07, No Iterations 2
smoothSolver:  Solving for k, Initial residual = 0.00635751299273, Final residual = 0.000534504213271, No Iterations 12
ExecutionTime = 251.47 s  ClockTime = 279 s

Time = 47

smoothSolver:  Solving for Ux, Initial residual = 0.00417029798593, Final residual = 0.000367407632623, No Iterations 14
smoothSolver:  Solving for Uy, Initial residual = 0.0144475967918, Final residual = 0.00128322354954, No Iterations 13
smoothSolver:  Solving for Uz, Initial residual = 0.0134361433064, Final residual = 0.00131115140252, No Iterations 13
GAMG:  Solving for p, Initial residual = 0.0170143622008, Final residual = 0.000584391065518, No Iterations 2
time step continuity errors : sum local = 2.0254030445e-07, global = -1.18178619001e-08, cumulative = 1.7649690721e-06
smoothSolver:  Solving for omega, Initial residual = 3.51402723987e-06, Final residual = 3.42731644034e-07, No Iterations 2
smoothSolver:  Solving for k, Initial residual = 0.00595618327796, Final residual = 0.000584887922724, No Iterations 11
ExecutionTime = 256.9 s  ClockTime = 284 s

Time = 48

smoothSolver:  Solving for Ux, Initial residual = 0.00385126076587, Final residual = 0.000338408593099, No Iterations 14
smoothSolver:  Solving for Uy, Initial residual = 0.0133974507254, Final residual = 0.00118458758897, No Iterations 13
smoothSolver:  Solving for Uz, Initial residual = 0.0125031040402, Final residual = 0.00119000682223, No Iterations 13
GAMG:  Solving for p, Initial residual = 0.0161968197797, Final residual = 0.000570882389194, No Iterations 2
time step continuity errors : sum local = 1.99450518227e-07, global = -7.77241705506e-09, cumulative = 1.75719665504e-06
smoothSolver:  Solving for omega, Initial residual = 2.69561890505e-06, Final residual = 2.02185904647e-07, No Iterations 3
smoothSolver:  Solving for k, Initial residual = 0.0054116243152, Final residual = 0.000506795434585, No Iterations 11
ExecutionTime = 262.38 s  ClockTime = 291 s

Time = 49

smoothSolver:  Solving for Ux, Initial residual = 0.00353559095554, Final residual = 0.000308514025168, No Iterations 14
smoothSolver:  Solving for Uy, Initial residual = 0.0123139766501, Final residual = 0.00106618255016, No Iterations 13
smoothSolver:  Solving for Uz, Initial residual = 0.0115534581651, Final residual = 0.00107762134176, No Iterations 13
GAMG:  Solving for p, Initial residual = 0.0150047125073, Final residual = 0.000532288019503, No Iterations 2
time step continuity errors : sum local = 1.86674076259e-07, global = -3.32129488781e-09, cumulative = 1.75387536016e-06
smoothSolver:  Solving for omega, Initial residual = 2.04144577376e-06, Final residual = 2.01721028066e-07, No Iterations 2
smoothSolver:  Solving for k, Initial residual = 0.00477439856416, Final residual = 0.000428375475396, No Iterations 11
ExecutionTime = 267.77 s  ClockTime = 297 s

Time = 50

smoothSolver:  Solving for Ux, Initial residual = 0.00319420444224, Final residual = 0.000281476243373, No Iterations 14
smoothSolver:  Solving for Uy, Initial residual = 0.0112994953042, Final residual = 0.000963139835771, No Iterations 13
smoothSolver:  Solving for Uz, Initial residual = 0.0104995946027, Final residual = 0.000966495006998, No Iterations 13
GAMG:  Solving for p, Initial residual = 0.0138994341749, Final residual = 0.000509577758031, No Iterations 2
time step continuity errors : sum local = 1.79800282952e-07, global = 8.77490427422e-10, cumulative = 1.75475285058e-06
smoothSolver:  Solving for omega, Initial residual = 1.57830641737e-06, Final residual = 1.19001903396e-07, No Iterations 3
smoothSolver:  Solving for k, Initial residual = 0.00415201059863, Final residual = 0.000359969898114, No Iterations 11
ExecutionTime = 273.23 s  ClockTime = 303 s

Time = 51

smoothSolver:  Solving for Ux, Initial residual = 0.00294406713456, Final residual = 0.000262940732898, No Iterations 14
smoothSolver:  Solving for Uy, Initial residual = 0.0104051187186, Final residual = 0.000886893972582, No Iterations 13
smoothSolver:  Solving for Uz, Initial residual = 0.00952448752157, Final residual = 0.000879025281197, No Iterations 13
GAMG:  Solving for p, Initial residual = 0.0130879732548, Final residual = 0.000466554083385, No Iterations 2
time step continuity errors : sum local = 1.6524011413e-07, global = 4.302555544e-09, cumulative = 1.75905540613e-06
smoothSolver:  Solving for omega, Initial residual = 1.19957121944e-06, Final residual = 8.7261988232e-08, No Iterations 3
smoothSolver:  Solving for k, Initial residual = 0.00356379878273, Final residual = 0.000303258489102, No Iterations 11
ExecutionTime = 278.8 s  ClockTime = 309 s

Time = 52

smoothSolver:  Solving for Ux, Initial residual = 0.00275153234978, Final residual = 0.000249799197954, No Iterations 14
smoothSolver:  Solving for Uy, Initial residual = 0.00961650547199, Final residual = 0.000820718263892, No Iterations 13
smoothSolver:  Solving for Uz, Initial residual = 0.00869699078112, Final residual = 0.000809684033425, No Iterations 13
GAMG:  Solving for p, Initial residual = 0.0123459792471, Final residual = 0.000392804729441, No Iterations 2
time step continuity errors : sum local = 1.39794697833e-07, global = 6.19691838651e-09, cumulative = 1.76525232451e-06
smoothSolver:  Solving for omega, Initial residual = 9.25062174984e-07, Final residual = 6.71303338216e-08, No Iterations 3
smoothSolver:  Solving for k, Initial residual = 0.00307587813761, Final residual = 0.00026008662814, No Iterations 11
ExecutionTime = 284.13 s  ClockTime = 314 s

Time = 53

smoothSolver:  Solving for Ux, Initial residual = 0.00259681198659, Final residual = 0.000237331964433, No Iterations 14
smoothSolver:  Solving for Uy, Initial residual = 0.0089849026852, Final residual = 0.000767686905678, No Iterations 13
smoothSolver:  Solving for Uz, Initial residual = 0.00805730744091, Final residual = 0.000754812796437, No Iterations 13
GAMG:  Solving for p, Initial residual = 0.0117162884708, Final residual = 0.000375837994631, No Iterations 2
time step continuity errors : sum local = 1.34158621836e-07, global = 6.72134098984e-09, cumulative = 1.7719736655e-06
smoothSolver:  Solving for omega, Initial residual = 7.0860213545e-07, Final residual = 5.41988111221e-08, No Iterations 3
smoothSolver:  Solving for k, Initial residual = 0.00270686853915, Final residual = 0.000226370132435, No Iterations 11
ExecutionTime = 289.28 s  ClockTime = 320 s

Time = 54

smoothSolver:  Solving for Ux, Initial residual = 0.00246960558498, Final residual = 0.00022791118876, No Iterations 14
smoothSolver:  Solving for Uy, Initial residual = 0.00843454356922, Final residual = 0.000722073140426, No Iterations 13
smoothSolver:  Solving for Uz, Initial residual = 0.00749152452755, Final residual = 0.000702196040121, No Iterations 13
GAMG:  Solving for p, Initial residual = 0.0110220613071, Final residual = 0.000363579239819, No Iterations 2
time step continuity errors : sum local = 1.30260764929e-07, global = 6.18852197588e-09, cumulative = 1.77816218748e-06
smoothSolver:  Solving for omega, Initial residual = 5.55040983601e-07, Final residual = 4.49288937043e-08, No Iterations 3
smoothSolver:  Solving for k, Initial residual = 0.00244033491449, Final residual = 0.000199316619386, No Iterations 11
ExecutionTime = 294.19 s  ClockTime = 325 s

Time = 55

smoothSolver:  Solving for Ux, Initial residual = 0.00234392407345, Final residual = 0.000220710760908, No Iterations 14
smoothSolver:  Solving for Uy, Initial residual = 0.00791037487482, Final residual = 0.000678767144147, No Iterations 13
smoothSolver:  Solving for Uz, Initial residual = 0.00702290690957, Final residual = 0.000657141572278, No Iterations 13
GAMG:  Solving for p, Initial residual = 0.0104169418667, Final residual = 0.000330126812724, No Iterations 2
time step continuity errors : sum local = 1.18535160959e-07, global = 4.90020289133e-09, cumulative = 1.78306239037e-06
smoothSolver:  Solving for omega, Initial residual = 4.29819094676e-07, Final residual = 3.77828224066e-08, No Iterations 3
smoothSolver:  Solving for k, Initial residual = 0.00223614777982, Final residual = 0.000223269587208, No Iterations 10
ExecutionTime = 300.46 s  ClockTime = 333 s

Time = 56

smoothSolver:  Solving for Ux, Initial residual = 0.00224680649071, Final residual = 0.000215029954738, No Iterations 14
smoothSolver:  Solving for Uy, Initial residual = 0.00747000279978, Final residual = 0.000653465684545, No Iterations 13
smoothSolver:  Solving for Uz, Initial residual = 0.00663184329535, Final residual = 0.000629707738835, No Iterations 13
GAMG:  Solving for p, Initial residual = 0.00972141756791, Final residual = 0.000297424212793, No Iterations 2
time step continuity errors : sum local = 1.07015118462e-07, global = 3.23630732611e-09, cumulative = 1.7862986977e-06
smoothSolver:  Solving for omega, Initial residual = 3.39898066772e-07, Final residual = 3.24854483744e-08, No Iterations 3
smoothSolver:  Solving for k, Initial residual = 0.00209020832998, Final residual = 0.000169542227284, No Iterations 11
ExecutionTime = 306.17 s  ClockTime = 339 s

Time = 57

smoothSolver:  Solving for Ux, Initial residual = 0.00217865014601, Final residual = 0.000210298900482, No Iterations 14
smoothSolver:  Solving for Uy, Initial residual = 0.00714517855772, Final residual = 0.000639445019073, No Iterations 13
smoothSolver:  Solving for Uz, Initial residual = 0.00628622671644, Final residual = 0.000618429952775, No Iterations 13
GAMG:  Solving for p, Initial residual = 0.00922672621589, Final residual = 0.000308194711868, No Iterations 2
time step continuity errors : sum local = 1.11072842824e-07, global = 1.31885774324e-09, cumulative = 1.78761755544e-06
smoothSolver:  Solving for omega, Initial residual = 2.68926696555e-07, Final residual = 2.23002237519e-08, No Iterations 4
smoothSolver:  Solving for k, Initial residual = 0.00199488514209, Final residual = 0.000166065398855, No Iterations 11
ExecutionTime = 311.22 s  ClockTime = 344 s

Time = 58

smoothSolver:  Solving for Ux, Initial residual = 0.00210607787333, Final residual = 0.000204327647195, No Iterations 14
smoothSolver:  Solving for Uy, Initial residual = 0.00692118918286, Final residual = 0.000633141420624, No Iterations 13
smoothSolver:  Solving for Uz, Initial residual = 0.00604579672204, Final residual = 0.000531042528019, No Iterations 14
GAMG:  Solving for p, Initial residual = 0.00902310371429, Final residual = 0.000284652558099, No Iterations 2
time step continuity errors : sum local = 1.02894979728e-07, global = -6.6585360114e-10, cumulative = 1.78695170184e-06
smoothSolver:  Solving for omega, Initial residual = 2.14353698917e-07, Final residual = 1.95825137236e-08, No Iterations 4
smoothSolver:  Solving for k, Initial residual = 0.00196945414494, Final residual = 0.00016802266349, No Iterations 11
ExecutionTime = 316.13 s  ClockTime = 349 s

Time = 59

smoothSolver:  Solving for Ux, Initial residual = 0.0020640229648, Final residual = 0.000198780654692, No Iterations 14
smoothSolver:  Solving for Uy, Initial residual = 0.00690141655116, Final residual = 0.000633480185228, No Iterations 13
smoothSolver:  Solving for Uz, Initial residual = 0.00600465402216, Final residual = 0.000541338659278, No Iterations 14
GAMG:  Solving for p, Initial residual = 0.00903176988616, Final residual = 0.000304627489472, No Iterations 2
time step continuity errors : sum local = 1.1032218114e-07, global = -2.53288373514e-09, cumulative = 1.7844188181e-06
smoothSolver:  Solving for omega, Initial residual = 1.76248575905e-07, Final residual = 1.44381522147e-08, No Iterations 5
smoothSolver:  Solving for k, Initial residual = 0.00200410262413, Final residual = 0.000172868637942, No Iterations 11
ExecutionTime = 322.02 s  ClockTime = 357 s

Time = 60

smoothSolver:  Solving for Ux, Initial residual = 0.00205014713728, Final residual = 0.00019587916336, No Iterations 14
smoothSolver:  Solving for Uy, Initial residual = 0.00696427200594, Final residual = 0.000638644772656, No Iterations 13
smoothSolver:  Solving for Uz, Initial residual = 0.00597367781092, Final residual = 0.000542071124453, No Iterations 14
GAMG:  Solving for p, Initial residual = 0.0091646125216, Final residual = 0.000315554793731, No Iterations 2
time step continuity errors : sum local = 1.14564209331e-07, global = -4.16305624213e-09, cumulative = 1.78025576186e-06
smoothSolver:  Solving for omega, Initial residual = 1.4243203001e-07, Final residual = 1.33695589477e-08, No Iterations 5
smoothSolver:  Solving for k, Initial residual = 0.00205253047707, Final residual = 0.000178466063962, No Iterations 11
ExecutionTime = 327.69 s  ClockTime = 363 s

Time = 61

smoothSolver:  Solving for Ux, Initial residual = 0.00204211008351, Final residual = 0.000195009779531, No Iterations 14
smoothSolver:  Solving for Uy, Initial residual = 0.0070613305021, Final residual = 0.000645152049161, No Iterations 13
smoothSolver:  Solving for Uz, Initial residual = 0.00598145869837, Final residual = 0.000533766066152, No Iterations 14
GAMG:  Solving for p, Initial residual = 0.00928798532257, Final residual = 0.000299633554821, No Iterations 2
time step continuity errors : sum local = 1.09076433653e-07, global = -5.20856234226e-09, cumulative = 1.77504719952e-06
smoothSolver:  Solving for omega, Initial residual = 1.22310825846e-07, Final residual = 1.03341562223e-08, No Iterations 6
smoothSolver:  Solving for k, Initial residual = 0.00212121145463, Final residual = 0.000185197975429, No Iterations 11
ExecutionTime = 333.88 s  ClockTime = 370 s

Time = 62

smoothSolver:  Solving for Ux, Initial residual = 0.00204808570082, Final residual = 0.000194254423416, No Iterations 14
smoothSolver:  Solving for Uy, Initial residual = 0.00717207374325, Final residual = 0.000656826229028, No Iterations 13
smoothSolver:  Solving for Uz, Initial residual = 0.00600848833761, Final residual = 0.000526229310739, No Iterations 14
GAMG:  Solving for p, Initial residual = 0.00923680544291, Final residual = 0.000303215533057, No Iterations 2
time step continuity errors : sum local = 1.10568783116e-07, global = -5.5933118691e-09, cumulative = 1.76945388765e-06
smoothSolver:  Solving for omega, Initial residual = 1.00297843014e-07, Final residual = 9.8402652891e-09, No Iterations 6
smoothSolver:  Solving for k, Initial residual = 0.002200742343, Final residual = 0.000193334468742, No Iterations 11
ExecutionTime = 339.68 s  ClockTime = 377 s

Time = 63

smoothSolver:  Solving for Ux, Initial residual = 0.00206267628829, Final residual = 0.000194505029829, No Iterations 14
smoothSolver:  Solving for Uy, Initial residual = 0.00724943639691, Final residual = 0.000670772593437, No Iterations 13
smoothSolver:  Solving for Uz, Initial residual = 0.00602882115082, Final residual = 0.000521320268637, No Iterations 14
GAMG:  Solving for p, Initial residual = 0.00917465296299, Final residual = 0.000319580215026, No Iterations 2
time step continuity errors : sum local = 1.16626213071e-07, global = -5.39251227134e-09, cumulative = 1.76406137538e-06
smoothSolver:  Solving for omega, Initial residual = 8.95611759833e-08, Final residual = 9.30963479206e-09, No Iterations 6
smoothSolver:  Solving for k, Initial residual = 0.00231596062806, Final residual = 0.000205070090481, No Iterations 11
ExecutionTime = 345.94 s  ClockTime = 384 s

Time = 64

smoothSolver:  Solving for Ux, Initial residual = 0.00206909965097, Final residual = 0.000195291304703, No Iterations 14
smoothSolver:  Solving for Uy, Initial residual = 0.00731922228489, Final residual = 0.000688347808696, No Iterations 13
smoothSolver:  Solving for Uz, Initial residual = 0.0061105705206, Final residual = 0.000524516306963, No Iterations 14
GAMG:  Solving for p, Initial residual = 0.00918133927502, Final residual = 0.000307938581174, No Iterations 2
time step continuity errors : sum local = 1.12693623201e-07, global = -4.74696155863e-09, cumulative = 1.75931441382e-06
smoothSolver:  Solving for omega, Initial residual = 7.62900161596e-08, Final residual = 8.98852275031e-09, No Iterations 6
smoothSolver:  Solving for k, Initial residual = 0.00245576369833, Final residual = 0.000221357164579, No Iterations 11
ExecutionTime = 351.54 s  ClockTime = 391 s

Time = 65

smoothSolver:  Solving for Ux, Initial residual = 0.00207678305826, Final residual = 0.00019655755348, No Iterations 14
smoothSolver:  Solving for Uy, Initial residual = 0.00738094307538, Final residual = 0.00070523732672, No Iterations 13
smoothSolver:  Solving for Uz, Initial residual = 0.00618575801458, Final residual = 0.000537891055756, No Iterations 14
GAMG:  Solving for p, Initial residual = 0.00917794129688, Final residual = 0.000314584068436, No Iterations 2
time step continuity errors : sum local = 1.15175688307e-07, global = -3.9128199192e-09, cumulative = 1.7554015939e-06
smoothSolver:  Solving for omega, Initial residual = 7.3140277406e-08, Final residual = 8.71256096963e-09, No Iterations 6
smoothSolver:  Solving for k, Initial residual = 0.00262001772444, Final residual = 0.000242251125024, No Iterations 11
ExecutionTime = 357.99 s  ClockTime = 399 s

Time = 66

smoothSolver:  Solving for Ux, Initial residual = 0.00210333762071, Final residual = 0.000198893936782, No Iterations 14
smoothSolver:  Solving for Uy, Initial residual = 0.00747385393004, Final residual = 0.000714824214887, No Iterations 13
smoothSolver:  Solving for Uz, Initial residual = 0.00634507734125, Final residual = 0.000551204661263, No Iterations 14
GAMG:  Solving for p, Initial residual = 0.00937950473658, Final residual = 0.000349061882692, No Iterations 2
time step continuity errors : sum local = 1.27884190528e-07, global = -2.95592286018e-09, cumulative = 1.75244567104e-06
smoothSolver:  Solving for omega, Initial residual = 6.53848051629e-08, Final residual = 8.56191176958e-09, No Iterations 6
smoothSolver:  Solving for k, Initial residual = 0.00284765370252, Final residual = 0.000269264137966, No Iterations 11
ExecutionTime = 363.82 s  ClockTime = 406 s

Time = 67

smoothSolver:  Solving for Ux, Initial residual = 0.00213442413628, Final residual = 0.000201012497068, No Iterations 14
smoothSolver:  Solving for Uy, Initial residual = 0.00749134341819, Final residual = 0.000710002202582, No Iterations 13
smoothSolver:  Solving for Uz, Initial residual = 0.00639386218949, Final residual = 0.000555056097726, No Iterations 14
GAMG:  Solving for p, Initial residual = 0.00971906074186, Final residual = 0.000336152931075, No Iterations 2
time step continuity errors : sum local = 1.23285319095e-07, global = -1.80404506745e-09, cumulative = 1.75064162597e-06
smoothSolver:  Solving for omega, Initial residual = 6.18940452608e-08, Final residual = 8.22238559067e-09, No Iterations 6
smoothSolver:  Solving for k, Initial residual = 0.00306489041476, Final residual = 0.000300203761517, No Iterations 11
ExecutionTime = 369.33 s  ClockTime = 412 s

Time = 68

smoothSolver:  Solving for Ux, Initial residual = 0.0021572231788, Final residual = 0.000196603390028, No Iterations 14
smoothSolver:  Solving for Uy, Initial residual = 0.00745970091816, Final residual = 0.000694864594924, No Iterations 13
smoothSolver:  Solving for Uz, Initial residual = 0.00652233682062, Final residual = 0.000637811232342, No Iterations 13
GAMG:  Solving for p, Initial residual = 0.0096977950701, Final residual = 0.000341649335706, No Iterations 2
time step continuity errors : sum local = 1.2522317468e-07, global = -5.17201773383e-10, cumulative = 1.7501244242e-06
smoothSolver:  Solving for omega, Initial residual = 5.90985696942e-08, Final residual = 9.99624842462e-09, No Iterations 5
smoothSolver:  Solving for k, Initial residual = 0.00332221308256, Final residual = 0.000278985555505, No Iterations 12
ExecutionTime = 375.04 s  ClockTime = 418 s

Time = 69

smoothSolver:  Solving for Ux, Initial residual = 0.00216909976772, Final residual = 0.000190066496862, No Iterations 14
smoothSolver:  Solving for Uy, Initial residual = 0.00738410394995, Final residual = 0.000682368655359, No Iterations 13
smoothSolver:  Solving for Uz, Initial residual = 0.00640825742724, Final residual = 0.000617151769454, No Iterations 13
GAMG:  Solving for p, Initial residual = 0.00965250499093, Final residual = 0.000353212255322, No Iterations 2
time step continuity errors : sum local = 1.29177093236e-07, global = 8.05994224829e-10, cumulative = 1.75093041843e-06
smoothSolver:  Solving for omega, Initial residual = 5.47712639292e-08, Final residual = 9.93795985365e-09, No Iterations 5
smoothSolver:  Solving for k, Initial residual = 0.00345190698528, Final residual = 0.000304601725301, No Iterations 12
ExecutionTime = 380.46 s  ClockTime = 424 s

Time = 70

smoothSolver:  Solving for Ux, Initial residual = 0.00212241025507, Final residual = 0.000209684404676, No Iterations 13
smoothSolver:  Solving for Uy, Initial residual = 0.00720669523442, Final residual = 0.000666870207211, No Iterations 13
smoothSolver:  Solving for Uz, Initial residual = 0.00633993761469, Final residual = 0.000591255189193, No Iterations 13
GAMG:  Solving for p, Initial residual = 0.00950993956189, Final residual = 0.00034526008081, No Iterations 2
time step continuity errors : sum local = 1.26103463067e-07, global = 1.86503191828e-09, cumulative = 1.75279545034e-06
smoothSolver:  Solving for omega, Initial residual = 5.35493359182e-08, Final residual = 9.93532244643e-09, No Iterations 5
smoothSolver:  Solving for k, Initial residual = 0.00357723336178, Final residual = 0.000324077525566, No Iterations 12
ExecutionTime = 386.76 s  ClockTime = 432 s

Time = 71

smoothSolver:  Solving for Ux, Initial residual = 0.00208638520664, Final residual = 0.000201910801183, No Iterations 13
smoothSolver:  Solving for Uy, Initial residual = 0.00708281929806, Final residual = 0.000659188496733, No Iterations 13
smoothSolver:  Solving for Uz, Initial residual = 0.00622346030386, Final residual = 0.000580184201145, No Iterations 13
GAMG:  Solving for p, Initial residual = 0.00917669745779, Final residual = 0.00033670412769, No Iterations 2
time step continuity errors : sum local = 1.22498595661e-07, global = 2.70880217922e-09, cumulative = 1.75550425252e-06
smoothSolver:  Solving for omega, Initial residual = 4.93770381448e-08, Final residual = 9.70053386999e-09, No Iterations 5
smoothSolver:  Solving for k, Initial residual = 0.003582212235, Final residual = 0.000333839628224, No Iterations 12
ExecutionTime = 392.32 s  ClockTime = 438 s

Time = 72

smoothSolver:  Solving for Ux, Initial residual = 0.00200761677502, Final residual = 0.000191912287493, No Iterations 13
smoothSolver:  Solving for Uy, Initial residual = 0.00689183351603, Final residual = 0.000643724886094, No Iterations 13
smoothSolver:  Solving for Uz, Initial residual = 0.00611932645544, Final residual = 0.000563192850503, No Iterations 13
GAMG:  Solving for p, Initial residual = 0.00893448512433, Final residual = 0.000353506319854, No Iterations 2
time step continuity errors : sum local = 1.28334803549e-07, global = 3.23700428775e-09, cumulative = 1.75874125681e-06
smoothSolver:  Solving for omega, Initial residual = 4.79860856624e-08, Final residual = 9.24150946457e-09, No Iterations 5
smoothSolver:  Solving for k, Initial residual = 0.00346511994323, Final residual = 0.000333763607702, No Iterations 12
ExecutionTime = 397.63 s  ClockTime = 444 s

Time = 73

smoothSolver:  Solving for Ux, Initial residual = 0.00195158435149, Final residual = 0.000183751010193, No Iterations 13
smoothSolver:  Solving for Uy, Initial residual = 0.00663196362148, Final residual = 0.000617609222388, No Iterations 13
smoothSolver:  Solving for Uz, Initial residual = 0.00595112680664, Final residual = 0.000543064097536, No Iterations 13
GAMG:  Solving for p, Initial residual = 0.00879882635602, Final residual = 0.000331125716539, No Iterations 2
time step continuity errors : sum local = 1.19990763621e-07, global = 3.38374731973e-09, cumulative = 1.76212500413e-06
smoothSolver:  Solving for omega, Initial residual = 4.37910689869e-08, Final residual = 9.06807096743e-09, No Iterations 5
smoothSolver:  Solving for k, Initial residual = 0.00336000068789, Final residual = 0.000324721224427, No Iterations 12
ExecutionTime = 403.28 s  ClockTime = 450 s

Time = 74

smoothSolver:  Solving for Ux, Initial residual = 0.0018354209245, Final residual = 0.000170736308586, No Iterations 13
smoothSolver:  Solving for Uy, Initial residual = 0.00627065531623, Final residual = 0.000578843916843, No Iterations 13
smoothSolver:  Solving for Uz, Initial residual = 0.00576314429111, Final residual = 0.00050958713783, No Iterations 13
GAMG:  Solving for p, Initial residual = 0.00839331345733, Final residual = 0.000319169050147, No Iterations 2
time step continuity errors : sum local = 1.15324558796e-07, global = 3.43473219768e-09, cumulative = 1.76555973633e-06
smoothSolver:  Solving for omega, Initial residual = 4.39012896201e-08, Final residual = 8.33375212806e-09, No Iterations 5
smoothSolver:  Solving for k, Initial residual = 0.0031860031527, Final residual = 0.000305717740245, No Iterations 12
ExecutionTime = 408.44 s  ClockTime = 455 s

Time = 75

smoothSolver:  Solving for Ux, Initial residual = 0.00175984090084, Final residual = 0.000157109945609, No Iterations 13
smoothSolver:  Solving for Uy, Initial residual = 0.00599977066325, Final residual = 0.000544979591689, No Iterations 13
smoothSolver:  Solving for Uz, Initial residual = 0.00553524430473, Final residual = 0.000479078134159, No Iterations 13
GAMG:  Solving for p, Initial residual = 0.00807849984362, Final residual = 0.000322783205075, No Iterations 2
time step continuity errors : sum local = 1.162682031e-07, global = 3.3253996192e-09, cumulative = 1.76888513595e-06
smoothSolver:  Solving for omega, Initial residual = 3.96240044833e-08, Final residual = 8.15708172037e-09, No Iterations 5
smoothSolver:  Solving for k, Initial residual = 0.00304082419835, Final residual = 0.000283821435418, No Iterations 12
ExecutionTime = 413.88 s  ClockTime = 461 s

Time = 76

smoothSolver:  Solving for Ux, Initial residual = 0.00164723406263, Final residual = 0.000145160571601, No Iterations 13
smoothSolver:  Solving for Uy, Initial residual = 0.00570167819104, Final residual = 0.00051067940187, No Iterations 13
smoothSolver:  Solving for Uz, Initial residual = 0.00526940217467, Final residual = 0.000519999436425, No Iterations 12
GAMG:  Solving for p, Initial residual = 0.00788311271929, Final residual = 0.000323804927649, No Iterations 2
time step continuity errors : sum local = 1.16307172183e-07, global = 3.23806584274e-09, cumulative = 1.77212320179e-06
smoothSolver:  Solving for omega, Initial residual = 3.810101875e-08, Final residual = 9.14878089632e-09, No Iterations 4
smoothSolver:  Solving for k, Initial residual = 0.00281318992392, Final residual = 0.000255500010102, No Iterations 12
ExecutionTime = 419.03 s  ClockTime = 466 s

Time = 77

smoothSolver:  Solving for Ux, Initial residual = 0.00155378237019, Final residual = 0.000135953832328, No Iterations 13
smoothSolver:  Solving for Uy, Initial residual = 0.00546796439807, Final residual = 0.00047982998855, No Iterations 13
smoothSolver:  Solving for Uz, Initial residual = 0.00500401725737, Final residual = 0.000480888410349, No Iterations 12
GAMG:  Solving for p, Initial residual = 0.00754270748271, Final residual = 0.000301116144782, No Iterations 2
time step continuity errors : sum local = 1.07832142909e-07, global = 3.07872231342e-09, cumulative = 1.7752019241e-06
smoothSolver:  Solving for omega, Initial residual = 3.72442093802e-08, Final residual = 9.62445842986e-09, No Iterations 4
smoothSolver:  Solving for k, Initial residual = 0.00263824772515, Final residual = 0.000231320057713, No Iterations 12
ExecutionTime = 424.19 s  ClockTime = 472 s

Time = 78

smoothSolver:  Solving for Ux, Initial residual = 0.00151534287758, Final residual = 0.000132994053138, No Iterations 13
smoothSolver:  Solving for Uy, Initial residual = 0.00524359569223, Final residual = 0.000460041048457, No Iterations 13
smoothSolver:  Solving for Uz, Initial residual = 0.00481513588308, Final residual = 0.000465360105778, No Iterations 12
GAMG:  Solving for p, Initial residual = 0.00734709465727, Final residual = 0.000309065171756, No Iterations 2
time step continuity errors : sum local = 1.10430956626e-07, global = 2.84899977911e-09, cumulative = 1.77805092388e-06
smoothSolver:  Solving for omega, Initial residual = 3.8399285153e-08, Final residual = 9.30151461946e-09, No Iterations 4
smoothSolver:  Solving for k, Initial residual = 0.00239675134045, Final residual = 0.000204802062533, No Iterations 12
ExecutionTime = 429.36 s  ClockTime = 477 s

Time = 79

smoothSolver:  Solving for Ux, Initial residual = 0.00146918275656, Final residual = 0.000128098872859, No Iterations 13
smoothSolver:  Solving for Uy, Initial residual = 0.00506160102646, Final residual = 0.00044430503428, No Iterations 13
smoothSolver:  Solving for Uz, Initial residual = 0.00463825317343, Final residual = 0.000448589195011, No Iterations 12
GAMG:  Solving for p, Initial residual = 0.00722092810132, Final residual = 0.000316483761909, No Iterations 2
time step continuity errors : sum local = 1.12816751617e-07, global = 2.57297494228e-09, cumulative = 1.78062389883e-06
smoothSolver:  Solving for omega, Initial residual = 3.71881307315e-08, Final residual = 9.43131604832e-09, No Iterations 4
smoothSolver:  Solving for k, Initial residual = 0.00221159745437, Final residual = 0.00018301612518, No Iterations 12
ExecutionTime = 434.45 s  ClockTime = 482 s

Time = 80

smoothSolver:  Solving for Ux, Initial residual = 0.00145809870069, Final residual = 0.000134371799735, No Iterations 13
smoothSolver:  Solving for Uy, Initial residual = 0.00489638435652, Final residual = 0.000450182821497, No Iterations 13
smoothSolver:  Solving for Uz, Initial residual = 0.00452957411232, Final residual = 0.000450695898023, No Iterations 12
GAMG:  Solving for p, Initial residual = 0.0068468615839, Final residual = 0.000302276449495, No Iterations 2
time step continuity errors : sum local = 1.07495151549e-07, global = 2.38845767746e-09, cumulative = 1.7830123565e-06
smoothSolver:  Solving for omega, Initial residual = 3.84718599649e-08, Final residual = 9.14622177937e-09, No Iterations 4
smoothSolver:  Solving for k, Initial residual = 0.00198982393632, Final residual = 0.000197982497987, No Iterations 11
ExecutionTime = 439.33 s  ClockTime = 487 s

Time = 81

smoothSolver:  Solving for Ux, Initial residual = 0.00141746374883, Final residual = 0.000137378323777, No Iterations 13
smoothSolver:  Solving for Uy, Initial residual = 0.00478959764934, Final residual = 0.00046320293188, No Iterations 13
smoothSolver:  Solving for Uz, Initial residual = 0.00442028070336, Final residual = 0.000392792491046, No Iterations 13
GAMG:  Solving for p, Initial residual = 0.0064890925281, Final residual = 0.00028824928327, No Iterations 2
time step continuity errors : sum local = 1.02276697681e-07, global = 2.24764490295e-09, cumulative = 1.78526000141e-06
smoothSolver:  Solving for omega, Initial residual = 3.64995694357e-08, Final residual = 9.02736754483e-09, No Iterations 4
smoothSolver:  Solving for k, Initial residual = 0.00181858452721, Final residual = 0.000174834746423, No Iterations 11
ExecutionTime = 444.39 s  ClockTime = 492 s

Time = 82

smoothSolver:  Solving for Ux, Initial residual = 0.00144123608486, Final residual = 0.000126134187745, No Iterations 14
smoothSolver:  Solving for Uy, Initial residual = 0.00475070257301, Final residual = 0.00041936997306, No Iterations 14
smoothSolver:  Solving for Uz, Initial residual = 0.00435243849847, Final residual = 0.000409200719812, No Iterations 13
GAMG:  Solving for p, Initial residual = 0.00621233419595, Final residual = 0.000296478263536, No Iterations 2
time step continuity errors : sum local = 1.04922220642e-07, global = 2.18223333717e-09, cumulative = 1.78744223474e-06
smoothSolver:  Solving for omega, Initial residual = 3.58613988116e-08, Final residual = 8.80984219124e-09, No Iterations 4
smoothSolver:  Solving for k, Initial residual = 0.00164873798432, Final residual = 0.000152456870811, No Iterations 11
ExecutionTime = 449.43 s  ClockTime = 498 s

Time = 83

smoothSolver:  Solving for Ux, Initial residual = 0.00141848639434, Final residual = 0.000130988610863, No Iterations 14
smoothSolver:  Solving for Uy, Initial residual = 0.00468746506825, Final residual = 0.000428012890446, No Iterations 14
smoothSolver:  Solving for Uz, Initial residual = 0.00429247409184, Final residual = 0.000419621888166, No Iterations 13
GAMG:  Solving for p, Initial residual = 0.00608542999805, Final residual = 0.000278420311721, No Iterations 2
time step continuity errors : sum local = 9.83133174545e-08, global = 2.08979876684e-09, cumulative = 1.78953203351e-06
smoothSolver:  Solving for omega, Initial residual = 3.38528543501e-08, Final residual = 8.66454746578e-09, No Iterations 4
smoothSolver:  Solving for k, Initial residual = 0.00148133818338, Final residual = 0.000131790436693, No Iterations 11
ExecutionTime = 454.6 s  ClockTime = 503 s

Time = 84

smoothSolver:  Solving for Ux, Initial residual = 0.00142903562009, Final residual = 0.000137648396557, No Iterations 14
smoothSolver:  Solving for Uy, Initial residual = 0.00472908975741, Final residual = 0.000441803701012, No Iterations 14
smoothSolver:  Solving for Uz, Initial residual = 0.00430870834126, Final residual = 0.000385907571712, No Iterations 14
GAMG:  Solving for p, Initial residual = 0.00592740307852, Final residual = 0.000282903851353, No Iterations 2
time step continuity errors : sum local = 9.97177265902e-08, global = 1.9353194576e-09, cumulative = 1.79146735297e-06
smoothSolver:  Solving for omega, Initial residual = 3.36736989406e-08, Final residual = 8.49482613634e-09, No Iterations 4
smoothSolver:  Solving for k, Initial residual = 0.00132702884015, Final residual = 0.000113656030294, No Iterations 11
ExecutionTime = 459.77 s  ClockTime = 509 s

Time = 85

smoothSolver:  Solving for Ux, Initial residual = 0.00142133814279, Final residual = 0.000140099749734, No Iterations 14
smoothSolver:  Solving for Uy, Initial residual = 0.00474980765551, Final residual = 0.000448074305237, No Iterations 14
smoothSolver:  Solving for Uz, Initial residual = 0.00435383018478, Final residual = 0.000400914193154, No Iterations 14
GAMG:  Solving for p, Initial residual = 0.00598397686492, Final residual = 0.000303020175528, No Iterations 2
time step continuity errors : sum local = 1.06583471876e-07, global = 1.54282356462e-09, cumulative = 1.79301017653e-06
smoothSolver:  Solving for omega, Initial residual = 3.15759992805e-08, Final residual = 8.1224422183e-09, No Iterations 4
smoothSolver:  Solving for k, Initial residual = 0.00119229510193, Final residual = 9.98301722881e-05, No Iterations 11
ExecutionTime = 465.07 s  ClockTime = 514 s

Time = 86

smoothSolver:  Solving for Ux, Initial residual = 0.0014009612027, Final residual = 0.000122199166071, No Iterations 15
smoothSolver:  Solving for Uy, Initial residual = 0.00467620247375, Final residual = 0.000441971700248, No Iterations 14
smoothSolver:  Solving for Uz, Initial residual = 0.00430670266804, Final residual = 0.000400061250348, No Iterations 14
GAMG:  Solving for p, Initial residual = 0.00602033387631, Final residual = 0.00027604720406, No Iterations 2
time step continuity errors : sum local = 9.70351321731e-08, global = 9.14271089273e-10, cumulative = 1.79392444762e-06
smoothSolver:  Solving for omega, Initial residual = 3.14564640647e-08, Final residual = 8.06952796391e-09, No Iterations 4
smoothSolver:  Solving for k, Initial residual = 0.00107995040894, Final residual = 9.15619478307e-05, No Iterations 11
ExecutionTime = 470.35 s  ClockTime = 520 s

Time = 87

smoothSolver:  Solving for Ux, Initial residual = 0.00136398565124, Final residual = 0.000135346396505, No Iterations 14
smoothSolver:  Solving for Uy, Initial residual = 0.00454553460033, Final residual = 0.000421131808416, No Iterations 14
smoothSolver:  Solving for Uz, Initial residual = 0.0042559089723, Final residual = 0.00039187179341, No Iterations 14
GAMG:  Solving for p, Initial residual = 0.00570162650336, Final residual = 0.00025306677443, No Iterations 2
time step continuity errors : sum local = 8.87512113811e-08, global = 4.75952933656e-10, cumulative = 1.79440040055e-06
smoothSolver:  Solving for omega, Initial residual = 3.08062651879e-08, Final residual = 8.05720439225e-09, No Iterations 4
smoothSolver:  Solving for k, Initial residual = 0.000999946387216, Final residual = 8.95919175942e-05, No Iterations 11
ExecutionTime = 475.11 s  ClockTime = 525 s

Time = 88

smoothSolver:  Solving for Ux, Initial residual = 0.00131818861722, Final residual = 0.00012821602138, No Iterations 14
smoothSolver:  Solving for Uy, Initial residual = 0.00442829042356, Final residual = 0.000398984190174, No Iterations 14
smoothSolver:  Solving for Uz, Initial residual = 0.00414284762138, Final residual = 0.000376203860647, No Iterations 14
GAMG:  Solving for p, Initial residual = 0.00544876760495, Final residual = 0.00024398460598, No Iterations 2
time step continuity errors : sum local = 8.53960421514e-08, global = 9.84784711372e-11, cumulative = 1.79449887903e-06
smoothSolver:  Solving for omega, Initial residual = 3.07131453412e-08, Final residual = 8.12849449483e-09, No Iterations 4
smoothSolver:  Solving for k, Initial residual = 0.000952214733629, Final residual = 9.40940665048e-05, No Iterations 11
ExecutionTime = 479.63 s  ClockTime = 529 s

Time = 89

smoothSolver:  Solving for Ux, Initial residual = 0.00126511319878, Final residual = 0.000120107020304, No Iterations 14
[...]
smoothSolver:  Solving for k, Initial residual = 0.000308505153677, Final residual = 2.96115516995e-05, No Iterations 11
ExecutionTime = 867.48 s  ClockTime = 923 s

Time = 175

smoothSolver:  Solving for Ux, Initial residual = 0.000414474080138, Final residual = 4.00805650689e-05, No Iterations 12
smoothSolver:  Solving for Uy, Initial residual = 0.00160523551288, Final residual = 0.00015994633091, No Iterations 11
smoothSolver:  Solving for Uz, Initial residual = 0.00135588008537, Final residual = 0.000127925492176, No Iterations 12
GAMG:  Solving for p, Initial residual = 0.00239528835005, Final residual = 9.69743350343e-05, No Iterations 2
time step continuity errors : sum local = 3.28313717273e-08, global = 2.63305858244e-10, cumulative = 1.85046714982e-06
smoothSolver:  Solving for omega, Initial residual = 1.53062891567e-08, Final residual = 9.72180394427e-09, No Iterations 1
smoothSolver:  Solving for k, Initial residual = 0.000292710899413, Final residual = 2.83049595049e-05, No Iterations 11
ExecutionTime = 871.55 s  ClockTime = 928 s

Time = 176

smoothSolver:  Solving for Ux, Initial residual = 0.000389016520565, Final residual = 3.6566480871e-05, No Iterations 12
smoothSolver:  Solving for Uy, Initial residual = 0.00149609002703, Final residual = 0.00014286188575, No Iterations 11
smoothSolver:  Solving for Uz, Initial residual = 0.00130968892132, Final residual = 0.00011843306361, No Iterations 12
GAMG:  Solving for p, Initial residual = 0.00235179702806, Final residual = 8.07870269263e-05, No Iterations 2
time step continuity errors : sum local = 2.73365571381e-08, global = 2.90970321459e-10, cumulative = 1.85075812014e-06
smoothSolver:  Solving for omega, Initial residual = 1.68720735582e-08, Final residual = 7.75916632576e-09, No Iterations 2
smoothSolver:  Solving for k, Initial residual = 0.000291847894605, Final residual = 2.69997748487e-05, No Iterations 11
ExecutionTime = 875.64 s  ClockTime = 932 s

Time = 177

smoothSolver:  Solving for Ux, Initial residual = 0.000380403818272, Final residual = 3.50432378797e-05, No Iterations 12
smoothSolver:  Solving for Uy, Initial residual = 0.00146533240912, Final residual = 0.000140659291403, No Iterations 11
smoothSolver:  Solving for Uz, Initial residual = 0.00131150583003, Final residual = 0.000115284245491, No Iterations 12
GAMG:  Solving for p, Initial residual = 0.0023031736481, Final residual = 9.09314038407e-05, No Iterations 2
time step continuity errors : sum local = 3.07696468927e-08, global = 3.61887858722e-10, cumulative = 1.851120008e-06
smoothSolver:  Solving for omega, Initial residual = 1.55456754641e-08, Final residual = 9.97929805057e-09, No Iterations 1
smoothSolver:  Solving for k, Initial residual = 0.000300834619504, Final residual = 2.60212720152e-05, No Iterations 11
ExecutionTime = 879.99 s  ClockTime = 936 s

Time = 178

smoothSolver:  Solving for Ux, Initial residual = 0.000385147893348, Final residual = 3.59691965082e-05, No Iterations 12
smoothSolver:  Solving for Uy, Initial residual = 0.00147519130525, Final residual = 0.000127155399428, No Iterations 12
smoothSolver:  Solving for Uz, Initial residual = 0.00127674615862, Final residual = 0.000113947333461, No Iterations 12
GAMG:  Solving for p, Initial residual = 0.00231859185215, Final residual = 9.03403312932e-05, No Iterations 2
time step continuity errors : sum local = 3.05630538068e-08, global = 4.57307932891e-10, cumulative = 1.85157731593e-06
smoothSolver:  Solving for omega, Initial residual = 1.70233028423e-08, Final residual = 7.80150254715e-09, No Iterations 2
smoothSolver:  Solving for k, Initial residual = 0.000318728713323, Final residual = 2.62687430883e-05, No Iterations 11
ExecutionTime = 884.3 s  ClockTime = 941 s

Time = 179

smoothSolver:  Solving for Ux, Initial residual = 0.000387177645007, Final residual = 3.81703409532e-05, No Iterations 12
smoothSolver:  Solving for Uy, Initial residual = 0.00149175151541, Final residual = 0.000132383729735, No Iterations 12
smoothSolver:  Solving for Uz, Initial residual = 0.00128175719261, Final residual = 0.000120296720464, No Iterations 12
GAMG:  Solving for p, Initial residual = 0.00235649434889, Final residual = 7.49501372235e-05, No Iterations 2
time step continuity errors : sum local = 2.53575908246e-08, global = 5.26714284839e-10, cumulative = 1.85210403022e-06
smoothSolver:  Solving for omega, Initial residual = 1.52983538452e-08, Final residual = 9.7520690395e-09, No Iterations 1
smoothSolver:  Solving for k, Initial residual = 0.000324354581885, Final residual = 2.66771268384e-05, No Iterations 11
ExecutionTime = 888.57 s  ClockTime = 945 s

Time = 180

smoothSolver:  Solving for Ux, Initial residual = 0.000399746569315, Final residual = 3.80022362196e-05, No Iterations 12
smoothSolver:  Solving for Uy, Initial residual = 0.00154453436819, Final residual = 0.000132198938563, No Iterations 12
smoothSolver:  Solving for Uz, Initial residual = 0.00132290213442, Final residual = 0.000125653108304, No Iterations 12
GAMG:  Solving for p, Initial residual = 0.00238037919675, Final residual = 9.23342032815e-05, No Iterations 2
time step continuity errors : sum local = 3.12338417918e-08, global = 5.62525566063e-10, cumulative = 1.85266655578e-06
smoothSolver:  Solving for omega, Initial residual = 1.6157119809e-08, Final residual = 7.60389331492e-09, No Iterations 2
smoothSolver:  Solving for k, Initial residual = 0.000323010840076, Final residual = 2.67834789324e-05, No Iterations 11
ExecutionTime = 892.85 s  ClockTime = 949 s

Time = 181

smoothSolver:  Solving for Ux, Initial residual = 0.000389030636744, Final residual = 3.55946311885e-05, No Iterations 12
smoothSolver:  Solving for Uy, Initial residual = 0.00151675567355, Final residual = 0.00014588796552, No Iterations 11
smoothSolver:  Solving for Uz, Initial residual = 0.00129408291511, Final residual = 0.00011483068369, No Iterations 12
GAMG:  Solving for p, Initial residual = 0.00239289221174, Final residual = 9.07490469179e-05, No Iterations 2
time step continuity errors : sum local = 3.07136227119e-08, global = 6.10748462115e-10, cumulative = 1.85327730424e-06
smoothSolver:  Solving for omega, Initial residual = 1.52305254027e-08, Final residual = 9.76370007685e-09, No Iterations 1
smoothSolver:  Solving for k, Initial residual = 0.000299856726937, Final residual = 2.55508910365e-05, No Iterations 11
ExecutionTime = 897.08 s  ClockTime = 954 s

Time = 182

smoothSolver:  Solving for Ux, Initial residual = 0.000359956686946, Final residual = 3.15091889029e-05, No Iterations 12
smoothSolver:  Solving for Uy, Initial residual = 0.00141549401569, Final residual = 0.000129358156339, No Iterations 11
smoothSolver:  Solving for Uz, Initial residual = 0.00124723669708, Final residual = 0.000121782618128, No Iterations 11
GAMG:  Solving for p, Initial residual = 0.00232381643558, Final residual = 7.34483877313e-05, No Iterations 2
time step continuity errors : sum local = 2.48387308925e-08, global = 6.7688736339e-10, cumulative = 1.85395419161e-06
smoothSolver:  Solving for omega, Initial residual = 1.63604539441e-08, Final residual = 7.58504488867e-09, No Iterations 2
smoothSolver:  Solving for k, Initial residual = 0.000281283201403, Final residual = 2.34058194061e-05, No Iterations 11
ExecutionTime = 901.35 s  ClockTime = 958 s

Time = 183

smoothSolver:  Solving for Ux, Initial residual = 0.000348639184771, Final residual = 3.45025697216e-05, No Iterations 11
smoothSolver:  Solving for Uy, Initial residual = 0.0013776832735, Final residual = 0.000127324830466, No Iterations 11
smoothSolver:  Solving for Uz, Initial residual = 0.00123779397339, Final residual = 0.000116340106526, No Iterations 11
GAMG:  Solving for p, Initial residual = 0.00227140731603, Final residual = 8.305953738e-05, No Iterations 2
time step continuity errors : sum local = 2.80855232619e-08, global = 7.23927178797e-10, cumulative = 1.85467811879e-06
smoothSolver:  Solving for omega, Initial residual = 1.46302950074e-08, Final residual = 9.44673607818e-09, No Iterations 1
smoothSolver:  Solving for k, Initial residual = 0.000270404098369, Final residual = 2.56266992848e-05, No Iterations 10
ExecutionTime = 905.38 s  ClockTime = 962 s

Time = 184

smoothSolver:  Solving for Ux, Initial residual = 0.000340514772358, Final residual = 3.36058058241e-05, No Iterations 11
smoothSolver:  Solving for Uy, Initial residual = 0.00136673848162, Final residual = 0.000132273045936, No Iterations 11
smoothSolver:  Solving for Uz, Initial residual = 0.00118929747907, Final residual = 0.000113353247593, No Iterations 11
GAMG:  Solving for p, Initial residual = 0.002255212685, Final residual = 8.45465345818e-05, No Iterations 2
time step continuity errors : sum local = 2.85764355328e-08, global = 7.26381775153e-10, cumulative = 1.85540450056e-06
smoothSolver:  Solving for omega, Initial residual = 1.56848898876e-08, Final residual = 7.35708577505e-09, No Iterations 2
smoothSolver:  Solving for k, Initial residual = 0.000264372768579, Final residual = 2.34457734535e-05, No Iterations 10
ExecutionTime = 909.57 s  ClockTime = 966 s

Time = 185

smoothSolver:  Solving for Ux, Initial residual = 0.000331114237738, Final residual = 2.91591371124e-05, No Iterations 12
smoothSolver:  Solving for Uy, Initial residual = 0.00134268544594, Final residual = 0.000127964777824, No Iterations 11
smoothSolver:  Solving for Uz, Initial residual = 0.00116680419329, Final residual = 0.000114345134162, No Iterations 11
GAMG:  Solving for p, Initial residual = 0.00229854199749, Final residual = 6.74606958042e-05, No Iterations 2
time step continuity errors : sum local = 2.27997750352e-08, global = 6.92048998181e-10, cumulative = 1.85609654956e-06
smoothSolver:  Solving for omega, Initial residual = 1.44433490992e-08, Final residual = 9.32645493747e-09, No Iterations 1
smoothSolver:  Solving for k, Initial residual = 0.000260041638924, Final residual = 2.24334789679e-05, No Iterations 10
ExecutionTime = 914.01 s  ClockTime = 971 s

Time = 186

smoothSolver:  Solving for Ux, Initial residual = 0.000340321853729, Final residual = 3.33490992724e-05, No Iterations 11
smoothSolver:  Solving for Uy, Initial residual = 0.0013569537368, Final residual = 0.00012066542375, No Iterations 11
smoothSolver:  Solving for Uz, Initial residual = 0.00117453324943, Final residual = 0.000114825582573, No Iterations 11
GAMG:  Solving for p, Initial residual = 0.00227481539342, Final residual = 8.237215734e-05, No Iterations 2
time step continuity errors : sum local = 2.7827182497e-08, global = 6.21746052405e-10, cumulative = 1.85671829561e-06
smoothSolver:  Solving for omega, Initial residual = 1.55268535589e-08, Final residual = 9.98539171773e-09, No Iterations 1
smoothSolver:  Solving for k, Initial residual = 0.000257413285821, Final residual = 2.23989921502e-05, No Iterations 10
ExecutionTime = 918.12 s  ClockTime = 975 s

Time = 187

smoothSolver:  Solving for Ux, Initial residual = 0.000334334488545, Final residual = 3.24870273384e-05, No Iterations 11
smoothSolver:  Solving for Uy, Initial residual = 0.00133223072289, Final residual = 0.000114572976721, No Iterations 11
smoothSolver:  Solving for Uz, Initial residual = 0.0011446085808, Final residual = 0.000105966137712, No Iterations 11
GAMG:  Solving for p, Initial residual = 0.00226922866813, Final residual = 8.48718054293e-05, No Iterations 2
time step continuity errors : sum local = 2.86864965327e-08, global = 5.94985884723e-10, cumulative = 1.8573132815e-06
smoothSolver:  Solving for omega, Initial residual = 1.62679809368e-08, Final residual = 7.43610231126e-09, No Iterations 2
smoothSolver:  Solving for k, Initial residual = 0.000236539084327, Final residual = 2.09403147656e-05, No Iterations 10
ExecutionTime = 922.38 s  ClockTime = 979 s

Time = 188

smoothSolver:  Solving for Ux, Initial residual = 0.000317938923121, Final residual = 3.01691305035e-05, No Iterations 11
smoothSolver:  Solving for Uy, Initial residual = 0.00124549827811, Final residual = 0.000122465905813, No Iterations 10
smoothSolver:  Solving for Uz, Initial residual = 0.001100754379, Final residual = 9.82872881292e-05, No Iterations 11
GAMG:  Solving for p, Initial residual = 0.00218332435116, Final residual = 6.80318319596e-05, No Iterations 2
time step continuity errors : sum local = 2.29740110412e-08, global = 5.94240315459e-10, cumulative = 1.85790752181e-06
smoothSolver:  Solving for omega, Initial residual = 1.44982697038e-08, Final residual = 9.20412967911e-09, No Iterations 1
smoothSolver:  Solving for k, Initial residual = 0.000218500788044, Final residual = 1.77488652107e-05, No Iterations 10
ExecutionTime = 926.48 s  ClockTime = 983 s

Time = 189

smoothSolver:  Solving for Ux, Initial residual = 0.000313037493084, Final residual = 2.86217694156e-05, No Iterations 11
smoothSolver:  Solving for Uy, Initial residual = 0.0012009795451, Final residual = 0.000117760393662, No Iterations 10
smoothSolver:  Solving for Uz, Initial residual = 0.00109036076286, Final residual = 9.47519574124e-05, No Iterations 11
GAMG:  Solving for p, Initial residual = 0.00213369578392, Final residual = 7.85119448308e-05, No Iterations 2
time step continuity errors : sum local = 2.65103280499e-08, global = 5.76696551005e-10, cumulative = 1.85848421836e-06
smoothSolver:  Solving for omega, Initial residual = 1.49945357551e-08, Final residual = 9.36108542193e-09, No Iterations 1
smoothSolver:  Solving for k, Initial residual = 0.000198087740889, Final residual = 1.74387728487e-05, No Iterations 9
ExecutionTime = 930.58 s  ClockTime = 987 s

Time = 190

smoothSolver:  Solving for Ux, Initial residual = 0.000300772101058, Final residual = 2.71737030946e-05, No Iterations 11
smoothSolver:  Solving for Uy, Initial residual = 0.00116282045459, Final residual = 9.95179215058e-05, No Iterations 11
smoothSolver:  Solving for Uz, Initial residual = 0.00103102428281, Final residual = 8.8598775331e-05, No Iterations 11
GAMG:  Solving for p, Initial residual = 0.00209379675638, Final residual = 8.08627253294e-05, No Iterations 2
time step continuity errors : sum local = 2.72910586768e-08, global = 5.09645433446e-10, cumulative = 1.8589938638e-06
smoothSolver:  Solving for omega, Initial residual = 1.51910529355e-08, Final residual = 9.4538142519e-09, No Iterations 1
smoothSolver:  Solving for k, Initial residual = 0.000169765652682, Final residual = 1.69082404023e-05, No Iterations 8
ExecutionTime = 934.68 s  ClockTime = 991 s

Time = 191

smoothSolver:  Solving for Ux, Initial residual = 0.000286849476869, Final residual = 2.64181708583e-05, No Iterations 11
smoothSolver:  Solving for Uy, Initial residual = 0.00112285093984, Final residual = 0.000110532995812, No Iterations 10
smoothSolver:  Solving for Uz, Initial residual = 0.00099646413825, Final residual = 8.72931149674e-05, No Iterations 11
GAMG:  Solving for p, Initial residual = 0.00205432774514, Final residual = 6.43821841e-05, No Iterations 2
time step continuity errors : sum local = 2.17230049365e-08, global = 3.87534673515e-10, cumulative = 1.85938139847e-06
smoothSolver:  Solving for omega, Initial residual = 1.49253799633e-08, Final residual = 9.33622868325e-09, No Iterations 1
smoothSolver:  Solving for k, Initial residual = 0.000161511167709, Final residual = 1.2976377201e-05, No Iterations 9
ExecutionTime = 938.82 s  ClockTime = 996 s

Time = 192

smoothSolver:  Solving for Ux, Initial residual = 0.000294220267766, Final residual = 2.66586244113e-05, No Iterations 11
smoothSolver:  Solving for Uy, Initial residual = 0.00112887273608, Final residual = 0.000107965516019, No Iterations 10
smoothSolver:  Solving for Uz, Initial residual = 0.000996457764833, Final residual = 9.03313776676e-05, No Iterations 11
GAMG:  Solving for p, Initial residual = 0.00204716692057, Final residual = 7.77269532734e-05, No Iterations 2
time step continuity errors : sum local = 2.62200287249e-08, global = 2.65318631566e-10, cumulative = 1.8596467171e-06
smoothSolver:  Solving for omega, Initial residual = 1.47737436257e-08, Final residual = 9.28377828807e-09, No Iterations 1
smoothSolver:  Solving for k, Initial residual = 0.00016168223732, Final residual = 1.46868290989e-05, No Iterations 9
ExecutionTime = 942.94 s  ClockTime = 1000 s

Time = 193

smoothSolver:  Solving for Ux, Initial residual = 0.000289458480823, Final residual = 2.68703969537e-05, No Iterations 11
smoothSolver:  Solving for Uy, Initial residual = 0.00111283441699, Final residual = 0.00010712490663, No Iterations 10
smoothSolver:  Solving for Uz, Initial residual = 0.000962311171692, Final residual = 8.44739526367e-05, No Iterations 11
GAMG:  Solving for p, Initial residual = 0.00204566667385, Final residual = 7.97114357271e-05, No Iterations 2
time step continuity errors : sum local = 2.69046412796e-08, global = 2.0737616888e-10, cumulative = 1.85985409327e-06
smoothSolver:  Solving for omega, Initial residual = 1.48889828382e-08, Final residual = 9.16364792673e-09, No Iterations 1
smoothSolver:  Solving for k, Initial residual = 0.000153817869924, Final residual = 1.28053160953e-05, No Iterations 10
ExecutionTime = 946.95 s  ClockTime = 1004 s

Time = 194

smoothSolver:  Solving for Ux, Initial residual = 0.000272258035898, Final residual = 2.46631522363e-05, No Iterations 11
smoothSolver:  Solving for Uy, Initial residual = 0.00103701769989, Final residual = 9.55874457423e-05, No Iterations 10
smoothSolver:  Solving for Uz, Initial residual = 0.00091751102193, Final residual = 7.9303997022e-05, No Iterations 11
GAMG:  Solving for p, Initial residual = 0.00195687911866, Final residual = 6.09119347682e-05, No Iterations 2
time step continuity errors : sum local = 2.05425261442e-08, global = 1.93113291229e-10, cumulative = 1.86004720656e-06
smoothSolver:  Solving for omega, Initial residual = 1.46086581553e-08, Final residual = 9.02583670525e-09, No Iterations 1
smoothSolver:  Solving for k, Initial residual = 0.000150518472895, Final residual = 1.24983148998e-05, No Iterations 10
ExecutionTime = 951.04 s  ClockTime = 1008 s

Time = 195

smoothSolver:  Solving for Ux, Initial residual = 0.000268725037144, Final residual = 2.31296709431e-05, No Iterations 11
smoothSolver:  Solving for Uy, Initial residual = 0.00100226166189, Final residual = 9.03656597597e-05, No Iterations 10
smoothSolver:  Solving for Uz, Initial residual = 0.000905767907055, Final residual = 8.94980079868e-05, No Iterations 10
GAMG:  Solving for p, Initial residual = 0.00190536739724, Final residual = 6.93466205424e-05, No Iterations 2
time step continuity errors : sum local = 2.33825790176e-08, global = 1.82372312358e-10, cumulative = 1.86022957887e-06
smoothSolver:  Solving for omega, Initial residual = 1.40642160544e-08, Final residual = 8.68264922029e-09, No Iterations 1
smoothSolver:  Solving for k, Initial residual = 0.000147908302605, Final residual = 1.42665631138e-05, No Iterations 9
ExecutionTime = 955.18 s  ClockTime = 1012 s

Time = 196

smoothSolver:  Solving for Ux, Initial residual = 0.000262046083434, Final residual = 2.23234925508e-05, No Iterations 11
smoothSolver:  Solving for Uy, Initial residual = 0.00095957787426, Final residual = 9.04822026778e-05, No Iterations 10
smoothSolver:  Solving for Uz, Initial residual = 0.000852249863036, Final residual = 8.16157863437e-05, No Iterations 10
GAMG:  Solving for p, Initial residual = 0.00188313389671, Final residual = 7.13798548675e-05, No Iterations 2
time step continuity errors : sum local = 2.40665342951e-08, global = 1.26844798113e-10, cumulative = 1.86035642367e-06
smoothSolver:  Solving for omega, Initial residual = 1.41618862702e-08, Final residual = 8.65212329893e-09, No Iterations 1
smoothSolver:  Solving for k, Initial residual = 0.000137764500141, Final residual = 1.1425800115e-05, No Iterations 10
ExecutionTime = 959.18 s  ClockTime = 1016 s


SIMPLE solution converged in 196 iterations

End

